MODEL 1
REMARK minimizedAffinity -9.07395077
REMARK minimizedRMSD -1
REMARK SMILES NC(=O)OC[C@H](O)[C@@H](O)[C@H](N)C(=O)N[C@H](C(=O)O)[C@H]1O[C@@H](n2cc(C(=O)O)c(=O)[nH]c2=O)[C@H](O)[C@@H]1O
REMARK SMILES IDX 14 1 12 2 13 3 15 5 19 6 21 7 33 8 20 9 35 10 22 11 23 12
REMARK SMILES IDX 24 13 28 14 31 15 29 16 30 17 32 18 25 20 26 21 27 22 34 24
REMARK SMILES IDX 36 26 16 28 17 29 18 30 10 32 8 33 6 34 5 35 4 36 2 37 3 38
REMARK SMILES IDX 1 39 7 42 9 44 11 46
REMARK H PARENT 14 4 30 19 27 23 34 25 36 27 18 31 1 40 1 41 7 43 9 45 11 47
REMARK H PARENT 11 48
REMARK Flexibility Score: inf
ROOT
ATOM      1  N   UNL     1      -7.570   3.451  -3.243  1.00  0.00    -0.339 N 
ATOM      2  C   UNL     1      -7.033   4.294  -2.296  1.00  0.00     0.240 C 
ATOM      3  O   UNL     1      -5.832   4.550  -2.246  1.00  0.00    -0.273 OA
ATOM      4  H   UNL     1      -8.585   3.477  -3.364  1.00  0.00     0.164 HD
ENDROOT
BRANCH   1   5
ATOM      5  C   UNL     1      -6.776   2.994  -4.387  1.00  0.00     0.224 C 
BRANCH   5   6
ATOM      6  C   UNL     1      -6.920   1.476  -4.566  1.00  0.00     0.186 C 
ATOM      7  C   UNL     1      -5.756  -0.357  -3.724  1.00  0.00     0.255 C 
ATOM      8  C   UNL     1      -6.826  -0.006  -2.679  1.00  0.00     0.196 C 
ATOM      9  O   UNL     1      -5.616   0.835  -4.521  1.00  0.00    -0.346 OA
ATOM     10  C   UNL     1      -7.812   0.779  -3.532  1.00  0.00     0.179 C 
BRANCH   7  11
ATOM     11  N   UNL     1      -4.470  -0.726  -3.133  1.00  0.00    -0.270 N 
ATOM     12  C   UNL     1      -3.841   0.093  -2.208  1.00  0.00     0.115 C 
ATOM     13  C   UNL     1      -2.699  -0.246  -1.591  1.00  0.00     0.141 C 
ATOM     14  C   UNL     1      -2.106  -1.559  -1.920  1.00  0.00     0.268 C 
ATOM     15  C   UNL     1      -3.940  -1.960  -3.486  1.00  0.00     0.330 C 
ATOM     16  O   UNL     1      -1.135  -2.024  -1.335  1.00  0.00    -0.268 OA
ATOM     17  N   UNL     1      -2.742  -2.272  -2.901  1.00  0.00    -0.273 N 
ATOM     18  O   UNL     1      -4.467  -2.751  -4.263  1.00  0.00    -0.248 OA
ATOM     19  H   UNL     1      -2.364  -3.182  -3.118  1.00  0.00     0.175 HD
BRANCH  13  20
ATOM     20  C   UNL     1      -2.059   0.675  -0.638  1.00  0.00     0.342 C 
ATOM     21  O   UNL     1      -1.751   1.835  -0.834  1.00  0.00    -0.246 OA
BRANCH  20  22
ATOM     22  O   UNL     1      -1.820   0.101   0.557  1.00  0.00    -0.477 OA
ATOM     23  H   UNL     1      -1.416   0.823   1.085  1.00  0.00     0.297 HD
ENDBRANCH  20  22
ENDBRANCH  13  20
ENDBRANCH   7  11
BRANCH   8  24
ATOM     24  O   UNL     1      -7.463  -1.129  -2.077  1.00  0.00    -0.386 OA
ATOM     25  H   UNL     1      -7.938  -0.814  -1.287  1.00  0.00     0.211 HD
ENDBRANCH   8  24
BRANCH  10  26
ATOM     26  O   UNL     1      -8.686  -0.141  -4.206  1.00  0.00    -0.387 OA
ATOM     27  H   UNL     1      -8.748  -0.940  -3.641  1.00  0.00     0.211 HD
ENDBRANCH  10  26
ENDBRANCH   5   6
BRANCH   5  28
ATOM     28  C   UNL     1      -7.257   3.778  -5.609  1.00  0.00     0.329 C 
ATOM     29  O   UNL     1      -6.646   3.966  -6.650  1.00  0.00    -0.250 OA
BRANCH  28  30
ATOM     30  O   UNL     1      -8.490   4.304  -5.453  1.00  0.00    -0.480 OA
ATOM     31  H   UNL     1      -8.697   4.672  -6.342  1.00  0.00     0.296 HD
ENDBRANCH  28  30
ENDBRANCH   5  28
ENDBRANCH   1   5
BRANCH   2  32
ATOM     32  C   UNL     1      -8.068   5.010  -1.398  1.00  0.00     0.173 C 
BRANCH  32  33
ATOM     33  C   UNL     1      -8.383   6.427  -1.937  1.00  0.00     0.172 C 
BRANCH  33  34
ATOM     34  C   UNL     1      -7.659   7.555  -1.175  1.00  0.00     0.183 C 
BRANCH  34  35
ATOM     35  C   UNL     1      -8.098   8.934  -1.690  1.00  0.00     0.269 C 
BRANCH  35  36
ATOM     36  O   UNL     1      -6.952   9.676  -2.156  1.00  0.00    -0.447 OA
BRANCH  36  37
ATOM     37  C   UNL     1      -6.972   9.986  -3.472  1.00  0.00     0.404 C 
ATOM     38  O   UNL     1      -7.308  11.055  -3.953  1.00  0.00    -0.225 OA
ATOM     39  N   UNL     1      -6.557   8.929  -4.202  1.00  0.00    -0.335 N 
ATOM     40  H   UNL     1      -6.419   8.037  -3.752  1.00  0.00     0.163 HD
ATOM     41  H   UNL     1      -6.619   8.985  -5.208  1.00  0.00     0.163 HD
ENDBRANCH  36  37
ENDBRANCH  35  36
ENDBRANCH  34  35
BRANCH  34  42
ATOM     42  O   UNL     1      -6.241   7.439  -1.384  1.00  0.00    -0.387 OA
ATOM     43  H   UNL     1      -5.831   8.192  -0.919  1.00  0.00     0.211 HD
ENDBRANCH  34  42
ENDBRANCH  33  34
BRANCH  33  44
ATOM     44  O   UNL     1      -7.992   6.491  -3.327  1.00  0.00    -0.388 OA
ATOM     45  H   UNL     1      -7.011   6.560  -3.272  1.00  0.00     0.211 HD
ENDBRANCH  33  44
ENDBRANCH  32  33
BRANCH  32  46
ATOM     46  N   UNL     1      -7.538   5.002  -0.013  1.00  0.00    -0.318 NA
ATOM     47  H   UNL     1      -6.609   5.427  -0.021  1.00  0.00     0.119 HD
ATOM     48  H   UNL     1      -7.379   4.029   0.257  1.00  0.00     0.119 HD
ENDBRANCH  32  46
ENDBRANCH   2  32
TORSDOF 18
ENDMDL
MODEL 2
REMARK minimizedAffinity -8.9227314
REMARK minimizedRMSD -1
REMARK SMILES NC(=O)OC[C@H](O)[C@@H](O)[C@H](N)C(=O)N[C@H](C(=O)O)[C@H]1O[C@@H](n2cc(C(=O)O)c(=O)[nH]c2=O)[C@H](O)[C@@H]1O
REMARK SMILES IDX 14 1 12 2 13 3 15 5 19 6 21 7 33 8 20 9 35 10 22 11 23 12
REMARK SMILES IDX 24 13 28 14 31 15 29 16 30 17 32 18 25 20 26 21 27 22 34 24
REMARK SMILES IDX 36 26 16 28 17 29 18 30 10 32 8 33 6 34 5 35 4 36 2 37 3 38
REMARK SMILES IDX 1 39 7 42 9 44 11 46
REMARK H PARENT 14 4 30 19 27 23 34 25 36 27 18 31 1 40 1 41 7 43 9 45 11 47
REMARK H PARENT 11 48
REMARK Flexibility Score: inf
ROOT
ATOM      1  N   UNL     1      -4.938   3.038  -3.130  1.00  0.00    -0.339 N 
ATOM      2  C   UNL     1      -3.750   3.687  -3.382  1.00  0.00     0.240 C 
ATOM      3  O   UNL     1      -3.359   3.926  -4.523  1.00  0.00    -0.273 OA
ATOM      4  H   UNL     1      -5.299   3.089  -2.174  1.00  0.00     0.164 HD
ENDROOT
BRANCH   1   5
ATOM      5  C   UNL     1      -5.913   2.802  -4.198  1.00  0.00     0.224 C 
BRANCH   5   6
ATOM      6  C   UNL     1      -6.061   1.298  -4.465  1.00  0.00     0.186 C 
ATOM      7  C   UNL     1      -5.009  -0.596  -3.608  1.00  0.00     0.255 C 
ATOM      8  C   UNL     1      -6.170  -0.275  -2.653  1.00  0.00     0.196 C 
ATOM      9  O   UNL     1      -4.777   0.630  -4.327  1.00  0.00    -0.346 OA
ATOM     10  C   UNL     1      -7.058   0.568  -3.557  1.00  0.00     0.179 C 
BRANCH   7  11
ATOM     11  N   UNL     1      -3.792  -1.017  -2.915  1.00  0.00    -0.270 N 
ATOM     12  C   UNL     1      -3.088  -0.144  -2.102  1.00  0.00     0.115 C 
ATOM     13  C   UNL     1      -2.009  -0.516  -1.394  1.00  0.00     0.141 C 
ATOM     14  C   UNL     1      -1.576  -1.924  -1.495  1.00  0.00     0.268 C 
ATOM     15  C   UNL     1      -3.410  -2.345  -3.055  1.00  0.00     0.330 C 
ATOM     16  O   UNL     1      -0.682  -2.404  -0.808  1.00  0.00    -0.268 OA
ATOM     17  N   UNL     1      -2.272  -2.701  -2.381  1.00  0.00    -0.273 N 
ATOM     18  O   UNL     1      -4.013  -3.181  -3.723  1.00  0.00    -0.248 OA
ATOM     19  H   UNL     1      -2.005  -3.673  -2.441  1.00  0.00     0.175 HD
BRANCH  13  20
ATOM     20  C   UNL     1      -1.282   0.461  -0.568  1.00  0.00     0.342 C 
ATOM     21  O   UNL     1      -0.141   0.851  -0.726  1.00  0.00    -0.246 OA
BRANCH  20  22
ATOM     22  O   UNL     1      -2.025   0.929   0.455  1.00  0.00    -0.477 OA
ATOM     23  H   UNL     1      -1.429   1.570   0.900  1.00  0.00     0.297 HD
ENDBRANCH  20  22
ENDBRANCH  13  20
ENDBRANCH   7  11
BRANCH   8  24
ATOM     24  O   UNL     1      -6.878  -1.414  -2.172  1.00  0.00    -0.386 OA
ATOM     25  H   UNL     1      -7.422  -1.129  -1.416  1.00  0.00     0.211 HD
ENDBRANCH   8  24
BRANCH  10  26
ATOM     26  O   UNL     1      -7.876  -0.302  -4.356  1.00  0.00    -0.387 OA
ATOM     27  H   UNL     1      -8.004  -1.126  -3.840  1.00  0.00     0.211 HD
ENDBRANCH  10  26
ENDBRANCH   5   6
BRANCH   5  28
ATOM     28  C   UNL     1      -7.225   3.452  -3.758  1.00  0.00     0.329 C 
ATOM     29  O   UNL     1      -7.538   3.785  -2.624  1.00  0.00    -0.250 OA
BRANCH  28  30
ATOM     30  O   UNL     1      -8.093   3.643  -4.773  1.00  0.00    -0.480 OA
ATOM     31  H   UNL     1      -8.821   4.159  -4.360  1.00  0.00     0.296 HD
ENDBRANCH  28  30
ENDBRANCH   5  28
ENDBRANCH   1   5
BRANCH   2  32
ATOM     32  C   UNL     1      -3.021   4.224  -2.130  1.00  0.00     0.173 C 
BRANCH  32  33
ATOM     33  C   UNL     1      -1.495   4.328  -2.378  1.00  0.00     0.172 C 
BRANCH  33  34
ATOM     34  C   UNL     1      -0.701   4.829  -1.156  1.00  0.00     0.183 C 
BRANCH  34  35
ATOM     35  C   UNL     1       0.705   5.289  -1.567  1.00  0.00     0.269 C 
BRANCH  35  36
ATOM     36  O   UNL     1       1.428   4.193  -2.166  1.00  0.00    -0.447 OA
BRANCH  36  37
ATOM     37  C   UNL     1       2.527   3.797  -1.485  1.00  0.00     0.404 C 
ATOM     38  O   UNL     1       2.538   3.188  -0.430  1.00  0.00    -0.225 OA
ATOM     39  N   UNL     1       3.641   4.173  -2.149  1.00  0.00    -0.335 N 
ATOM     40  H   UNL     1       3.563   4.785  -2.947  1.00  0.00     0.163 HD
ATOM     41  H   UNL     1       4.537   4.032  -1.704  1.00  0.00     0.163 HD
ENDBRANCH  36  37
ENDBRANCH  35  36
ENDBRANCH  34  35
BRANCH  34  42
ATOM     42  O   UNL     1      -0.554   3.757  -0.208  1.00  0.00    -0.387 OA
ATOM     43  H   UNL     1      -0.015   4.108   0.524  1.00  0.00     0.211 HD
ENDBRANCH  34  42
ENDBRANCH  33  34
BRANCH  33  44
ATOM     44  O   UNL     1      -0.996   3.021  -2.742  1.00  0.00    -0.388 OA
ATOM     45  H   UNL     1      -0.982   2.548  -1.879  1.00  0.00     0.211 HD
ENDBRANCH  33  44
ENDBRANCH  32  33
BRANCH  32  46
ATOM     46  N   UNL     1      -3.381   3.343  -0.992  1.00  0.00    -0.318 NA
ATOM     47  H   UNL     1      -3.151   2.380  -1.244  1.00  0.00     0.119 HD
ATOM     48  H   UNL     1      -4.399   3.353  -0.897  1.00  0.00     0.119 HD
ENDBRANCH  32  46
ENDBRANCH   2  32
TORSDOF 18
ENDMDL
MODEL 3
REMARK minimizedAffinity -8.87163639
REMARK minimizedRMSD -1
REMARK SMILES NC(=O)OC[C@H](O)[C@@H](O)[C@H](N)C(=O)N[C@H](C(=O)O)[C@H]1O[C@@H](n2cc(C(=O)O)c(=O)[nH]c2=O)[C@H](O)[C@@H]1O
REMARK SMILES IDX 14 1 12 2 13 3 15 5 19 6 21 7 33 8 20 9 35 10 22 11 23 12
REMARK SMILES IDX 24 13 28 14 31 15 29 16 30 17 32 18 25 20 26 21 27 22 34 24
REMARK SMILES IDX 36 26 16 28 17 29 18 30 10 32 8 33 6 34 5 35 4 36 2 37 3 38
REMARK SMILES IDX 1 39 7 42 9 44 11 46
REMARK H PARENT 14 4 30 19 27 23 34 25 36 27 18 31 1 40 1 41 7 43 9 45 11 47
REMARK H PARENT 11 48
REMARK Flexibility Score: inf
ROOT
ATOM      1  N   UNL     1      -6.852   2.789  -4.336  1.00  0.00    -0.339 N 
ATOM      2  C   UNL     1      -6.714   4.084  -4.782  1.00  0.00     0.240 C 
ATOM      3  O   UNL     1      -6.762   4.380  -5.974  1.00  0.00    -0.273 OA
ATOM      4  H   UNL     1      -7.035   2.660  -3.339  1.00  0.00     0.164 HD
ENDROOT
BRANCH   1   5
ATOM      5  C   UNL     1      -7.296   1.721  -5.237  1.00  0.00     0.224 C 
BRANCH   5   6
ATOM      6  C   UNL     1      -6.370   0.502  -5.120  1.00  0.00     0.186 C 
ATOM      7  C   UNL     1      -4.489   0.033  -3.829  1.00  0.00     0.255 C 
ATOM      8  C   UNL     1      -5.708  -0.345  -2.972  1.00  0.00     0.196 C 
ATOM      9  O   UNL     1      -5.010   0.925  -4.834  1.00  0.00    -0.346 OA
ATOM     10  C   UNL     1      -6.770  -0.519  -4.048  1.00  0.00     0.179 C 
BRANCH   7  11
ATOM     11  N   UNL     1      -3.429   0.691  -3.066  1.00  0.00    -0.270 N 
ATOM     12  C   UNL     1      -3.373   2.071  -2.953  1.00  0.00     0.115 C 
ATOM     13  C   UNL     1      -2.459   2.705  -2.203  1.00  0.00     0.141 C 
ATOM     14  C   UNL     1      -1.483   1.876  -1.466  1.00  0.00     0.268 C 
ATOM     15  C   UNL     1      -2.521  -0.127  -2.406  1.00  0.00     0.330 C 
ATOM     16  O   UNL     1      -0.683   2.336  -0.660  1.00  0.00    -0.268 OA
ATOM     17  N   UNL     1      -1.553   0.528  -1.694  1.00  0.00    -0.273 N 
ATOM     18  O   UNL     1      -2.541  -1.355  -2.427  1.00  0.00    -0.248 OA
ATOM     19  H   UNL     1      -0.910  -0.053  -1.176  1.00  0.00     0.175 HD
BRANCH  13  20
ATOM     20  C   UNL     1      -2.428   4.175  -2.142  1.00  0.00     0.342 C 
ATOM     21  O   UNL     1      -1.603   4.913  -2.645  1.00  0.00    -0.246 OA
BRANCH  20  22
ATOM     22  O   UNL     1      -3.456   4.686  -1.436  1.00  0.00    -0.477 OA
ATOM     23  H   UNL     1      -3.318   5.656  -1.494  1.00  0.00     0.297 HD
ENDBRANCH  20  22
ENDBRANCH  13  20
ENDBRANCH   7  11
BRANCH   8  24
ATOM     24  O   UNL     1      -5.556  -1.542  -2.215  1.00  0.00    -0.386 OA
ATOM     25  H   UNL     1      -6.266  -1.565  -1.548  1.00  0.00     0.211 HD
ENDBRANCH   8  24
BRANCH  10  26
ATOM     26  O   UNL     1      -6.669  -1.844  -4.597  1.00  0.00    -0.387 OA
ATOM     27  H   UNL     1      -6.303  -2.417  -3.891  1.00  0.00     0.211 HD
ENDBRANCH  10  26
ENDBRANCH   5   6
BRANCH   5  28
ATOM     28  C   UNL     1      -8.744   1.397  -4.869  1.00  0.00     0.329 C 
ATOM     29  O   UNL     1      -9.566   0.812  -5.558  1.00  0.00    -0.250 OA
BRANCH  28  30
ATOM     30  O   UNL     1      -9.095   1.841  -3.643  1.00  0.00    -0.480 OA
ATOM     31  H   UNL     1      -9.995   1.466  -3.512  1.00  0.00     0.296 HD
ENDBRANCH  28  30
ENDBRANCH   5  28
ENDBRANCH   1   5
BRANCH   2  32
ATOM     32  C   UNL     1      -6.644   5.153  -3.668  1.00  0.00     0.173 C 
BRANCH  32  33
ATOM     33  C   UNL     1      -7.032   4.549  -2.295  1.00  0.00     0.172 C 
BRANCH  33  34
ATOM     34  C   UNL     1      -6.715   5.471  -1.101  1.00  0.00     0.183 C 
BRANCH  34  35
ATOM     35  C   UNL     1      -8.005   6.030  -0.483  1.00  0.00     0.269 C 
BRANCH  35  36
ATOM     36  O   UNL     1      -8.541   7.077  -1.320  1.00  0.00    -0.447 OA
BRANCH  36  37
ATOM     37  C   UNL     1      -8.439   8.324  -0.806  1.00  0.00     0.404 C 
ATOM     38  O   UNL     1      -7.726   9.219  -1.227  1.00  0.00    -0.225 OA
ATOM     39  N   UNL     1      -9.254   8.450   0.262  1.00  0.00    -0.335 N 
ATOM     40  H   UNL     1      -9.717   7.635   0.635  1.00  0.00     0.163 HD
ATOM     41  H   UNL     1      -9.205   9.299   0.808  1.00  0.00     0.163 HD
ENDBRANCH  36  37
ENDBRANCH  35  36
ENDBRANCH  34  35
BRANCH  34  42
ATOM     42  O   UNL     1      -5.925   6.585  -1.553  1.00  0.00    -0.387 OA
ATOM     43  H   UNL     1      -5.784   7.157  -0.776  1.00  0.00     0.211 HD
ENDBRANCH  34  42
ENDBRANCH  33  34
BRANCH  33  44
ATOM     44  O   UNL     1      -8.451   4.275  -2.296  1.00  0.00    -0.388 OA
ATOM     45  H   UNL     1      -8.844   5.171  -2.189  1.00  0.00     0.211 HD
ENDBRANCH  33  44
ENDBRANCH  32  33
BRANCH  32  46
ATOM     46  N   UNL     1      -7.502   6.289  -4.085  1.00  0.00    -0.318 NA
ATOM     47  H   UNL     1      -8.439   5.931  -4.279  1.00  0.00     0.119 HD
ATOM     48  H   UNL     1      -7.159   6.628  -4.986  1.00  0.00     0.119 HD
ENDBRANCH  32  46
ENDBRANCH   2  32
TORSDOF 18
ENDMDL
MODEL 4
REMARK minimizedAffinity -8.85993576
REMARK minimizedRMSD -1
REMARK SMILES NC(=O)OC[C@H](O)[C@@H](O)[C@H](N)C(=O)N[C@H](C(=O)O)[C@H]1O[C@@H](n2cc(C(=O)O)c(=O)[nH]c2=O)[C@H](O)[C@@H]1O
REMARK SMILES IDX 14 1 12 2 13 3 15 5 19 6 21 7 33 8 20 9 35 10 22 11 23 12
REMARK SMILES IDX 24 13 28 14 31 15 29 16 30 17 32 18 25 20 26 21 27 22 34 24
REMARK SMILES IDX 36 26 16 28 17 29 18 30 10 32 8 33 6 34 5 35 4 36 2 37 3 38
REMARK SMILES IDX 1 39 7 42 9 44 11 46
REMARK H PARENT 14 4 30 19 27 23 34 25 36 27 18 31 1 40 1 41 7 43 9 45 11 47
REMARK H PARENT 11 48
REMARK Flexibility Score: inf
ROOT
ATOM      1  N   UNL     1       1.130   4.918  -1.155  1.00  0.00    -0.339 N 
ATOM      2  C   UNL     1      -0.203   5.260  -1.131  1.00  0.00     0.240 C 
ATOM      3  O   UNL     1      -0.664   6.060  -0.319  1.00  0.00    -0.273 OA
ATOM      4  H   UNL     1       1.470   4.441  -1.993  1.00  0.00     0.164 HD
ENDROOT
BRANCH   1   5
ATOM      5  C   UNL     1       2.117   5.662  -0.368  1.00  0.00     0.224 C 
BRANCH   5   6
ATOM      6  C   UNL     1       3.182   4.710   0.194  1.00  0.00     0.186 C 
ATOM      7  C   UNL     1       3.654   2.453  -0.140  1.00  0.00     0.255 C 
ATOM      8  C   UNL     1       4.392   3.219  -1.249  1.00  0.00     0.196 C 
ATOM      9  O   UNL     1       2.642   3.367   0.325  1.00  0.00    -0.346 OA
ATOM     10  C   UNL     1       4.469   4.609  -0.634  1.00  0.00     0.179 C 
BRANCH   7  11
ATOM     11  N   UNL     1       3.040   1.210  -0.606  1.00  0.00    -0.270 N 
ATOM     12  C   UNL     1       3.811   0.114  -0.957  1.00  0.00     0.115 C 
ATOM     13  C   UNL     1       3.280  -1.065  -1.319  1.00  0.00     0.141 C 
ATOM     14  C   UNL     1       1.807  -1.179  -1.328  1.00  0.00     0.268 C 
ATOM     15  C   UNL     1       1.652   1.154  -0.618  1.00  0.00     0.330 C 
ATOM     16  O   UNL     1       1.216  -2.234  -1.524  1.00  0.00    -0.268 OA
ATOM     17  N   UNL     1       1.118  -0.031  -1.048  1.00  0.00    -0.273 N 
ATOM     18  O   UNL     1       0.912   2.072  -0.276  1.00  0.00    -0.248 OA
ATOM     19  H   UNL     1       0.111  -0.100  -1.024  1.00  0.00     0.175 HD
BRANCH  13  20
ATOM     20  C   UNL     1       4.147  -2.188  -1.710  1.00  0.00     0.342 C 
ATOM     21  O   UNL     1       4.913  -2.230  -2.653  1.00  0.00    -0.246 OA
BRANCH  20  22
ATOM     22  O   UNL     1       4.023  -3.249  -0.887  1.00  0.00    -0.477 OA
ATOM     23  H   UNL     1       4.659  -3.901  -1.253  1.00  0.00     0.297 HD
ENDBRANCH  20  22
ENDBRANCH  13  20
ENDBRANCH   7  11
BRANCH   8  24
ATOM     24  O   UNL     1       5.695   2.727  -1.547  1.00  0.00    -0.386 OA
ATOM     25  H   UNL     1       5.973   3.116  -2.396  1.00  0.00     0.211 HD
ENDBRANCH   8  24
BRANCH  10  26
ATOM     26  O   UNL     1       5.603   4.671   0.247  1.00  0.00    -0.387 OA
ATOM     27  H   UNL     1       6.263   4.031  -0.095  1.00  0.00     0.211 HD
ENDBRANCH  10  26
ENDBRANCH   5   6
BRANCH   5  28
ATOM     28  C   UNL     1       2.711   6.731  -1.287  1.00  0.00     0.329 C 
ATOM     29  O   UNL     1       2.921   6.636  -2.487  1.00  0.00    -0.250 OA
BRANCH  28  30
ATOM     30  O   UNL     1       3.025   7.874  -0.642  1.00  0.00    -0.480 OA
ATOM     31  H   UNL     1       3.282   8.484  -1.369  1.00  0.00     0.296 HD
ENDBRANCH  28  30
ENDBRANCH   5  28
ENDBRANCH   1   5
BRANCH   2  32
ATOM     32  C   UNL     1      -1.047   4.681  -2.289  1.00  0.00     0.173 C 
BRANCH  32  33
ATOM     33  C   UNL     1      -2.498   4.395  -1.829  1.00  0.00     0.172 C 
BRANCH  33  34
ATOM     34  C   UNL     1      -3.481   4.155  -2.992  1.00  0.00     0.183 C 
BRANCH  34  35
ATOM     35  C   UNL     1      -3.877   2.673  -3.077  1.00  0.00     0.269 C 
BRANCH  35  36
ATOM     36  O   UNL     1      -2.886   1.938  -3.825  1.00  0.00    -0.447 OA
BRANCH  36  37
ATOM     37  C   UNL     1      -2.496   0.773  -3.259  1.00  0.00     0.404 C 
ATOM     38  O   UNL     1      -1.707   0.650  -2.339  1.00  0.00    -0.225 OA
ATOM     39  N   UNL     1      -3.116  -0.263  -3.863  1.00  0.00    -0.335 N 
ATOM     40  H   UNL     1      -3.655  -0.102  -4.700  1.00  0.00     0.163 HD
ATOM     41  H   UNL     1      -2.842  -1.201  -3.611  1.00  0.00     0.163 HD
ENDBRANCH  36  37
ENDBRANCH  35  36
ENDBRANCH  34  35
BRANCH  34  42
ATOM     42  O   UNL     1      -2.849   4.513  -4.233  1.00  0.00    -0.387 OA
ATOM     43  H   UNL     1      -3.490   4.307  -4.938  1.00  0.00     0.211 HD
ENDBRANCH  34  42
ENDBRANCH  33  34
BRANCH  33  44
ATOM     44  O   UNL     1      -2.492   3.221  -0.986  1.00  0.00    -0.388 OA
ATOM     45  H   UNL     1      -2.388   2.489  -1.636  1.00  0.00     0.211 HD
ENDBRANCH  33  44
ENDBRANCH  32  33
BRANCH  32  46
ATOM     46  N   UNL     1      -0.337   3.484  -2.803  1.00  0.00    -0.318 NA
ATOM     47  H   UNL     1      -0.179   2.843  -2.023  1.00  0.00     0.119 HD
ATOM     48  H   UNL     1       0.598   3.775  -3.095  1.00  0.00     0.119 HD
ENDBRANCH  32  46
ENDBRANCH   2  32
TORSDOF 18
ENDMDL
MODEL 5
REMARK minimizedAffinity -8.48643017
REMARK minimizedRMSD -1
REMARK SMILES NC(=O)OC[C@H](O)[C@@H](O)[C@H](N)C(=O)N[C@H](C(=O)O)[C@H]1O[C@@H](n2cc(C(=O)O)c(=O)[nH]c2=O)[C@H](O)[C@@H]1O
REMARK SMILES IDX 14 1 12 2 13 3 15 5 19 6 21 7 33 8 20 9 35 10 22 11 23 12
REMARK SMILES IDX 24 13 28 14 31 15 29 16 30 17 32 18 25 20 26 21 27 22 34 24
REMARK SMILES IDX 36 26 16 28 17 29 18 30 10 32 8 33 6 34 5 35 4 36 2 37 3 38
REMARK SMILES IDX 1 39 7 42 9 44 11 46
REMARK H PARENT 14 4 30 19 27 23 34 25 36 27 18 31 1 40 1 41 7 43 9 45 11 47
REMARK H PARENT 11 48
REMARK Flexibility Score: inf
ROOT
ATOM      1  N   UNL     1      -3.428   3.594  -3.329  1.00  0.00    -0.339 N 
ATOM      2  C   UNL     1      -2.107   3.212  -3.394  1.00  0.00     0.240 C 
ATOM      3  O   UNL     1      -1.606   2.742  -4.414  1.00  0.00    -0.273 OA
ATOM      4  H   UNL     1      -3.701   4.184  -2.540  1.00  0.00     0.164 HD
ENDROOT
BRANCH   1   5
ATOM      5  C   UNL     1      -4.252   3.679  -4.538  1.00  0.00     0.224 C 
BRANCH   5   6
ATOM      6  C   UNL     1      -5.737   3.514  -4.186  1.00  0.00     0.186 C 
ATOM      7  C   UNL     1      -7.336   4.933  -3.261  1.00  0.00     0.255 C 
ATOM      8  C   UNL     1      -7.342   5.202  -4.774  1.00  0.00     0.196 C 
ATOM      9  O   UNL     1      -6.069   4.296  -3.007  1.00  0.00    -0.346 OA
ATOM     10  C   UNL     1      -6.718   3.915  -5.294  1.00  0.00     0.179 C 
BRANCH   7  11
ATOM     11  N   UNL     1      -7.462   6.149  -2.458  1.00  0.00    -0.270 N 
ATOM     12  C   UNL     1      -7.091   7.386  -2.961  1.00  0.00     0.115 C 
ATOM     13  C   UNL     1      -7.261   8.531  -2.281  1.00  0.00     0.141 C 
ATOM     14  C   UNL     1      -7.879   8.446  -0.942  1.00  0.00     0.268 C 
ATOM     15  C   UNL     1      -8.029   6.020  -1.197  1.00  0.00     0.330 C 
ATOM     16  O   UNL     1      -8.191   9.431  -0.282  1.00  0.00    -0.268 OA
ATOM     17  N   UNL     1      -8.141   7.184  -0.483  1.00  0.00    -0.273 N 
ATOM     18  O   UNL     1      -8.420   4.963  -0.710  1.00  0.00    -0.248 OA
ATOM     19  H   UNL     1      -8.588   7.112   0.419  1.00  0.00     0.175 HD
BRANCH  13  20
ATOM     20  C   UNL     1      -6.823   9.814  -2.853  1.00  0.00     0.342 C 
ATOM     21  O   UNL     1      -7.324  10.410  -3.787  1.00  0.00    -0.246 OA
BRANCH  20  22
ATOM     22  O   UNL     1      -5.746  10.322  -2.221  1.00  0.00    -0.477 OA
ATOM     23  H   UNL     1      -5.580  11.168  -2.690  1.00  0.00     0.297 HD
ENDBRANCH  20  22
ENDBRANCH  13  20
ENDBRANCH   7  11
BRANCH   8  24
ATOM     24  O   UNL     1      -8.635   5.399  -5.339  1.00  0.00    -0.386 OA
ATOM     25  H   UNL     1      -8.517   5.784  -6.226  1.00  0.00     0.211 HD
ENDBRANCH   8  24
BRANCH  10  26
ATOM     26  O   UNL     1      -7.740   2.910  -5.408  1.00  0.00    -0.387 OA
ATOM     27  H   UNL     1      -8.585   3.380  -5.569  1.00  0.00     0.211 HD
ENDBRANCH  10  26
ENDBRANCH   5   6
BRANCH   5  28
ATOM     28  C   UNL     1      -3.950   5.027  -5.193  1.00  0.00     0.329 C 
ATOM     29  O   UNL     1      -3.985   6.128  -4.663  1.00  0.00    -0.250 OA
BRANCH  28  30
ATOM     30  O   UNL     1      -3.626   4.926  -6.499  1.00  0.00    -0.480 OA
ATOM     31  H   UNL     1      -3.357   5.840  -6.741  1.00  0.00     0.296 HD
ENDBRANCH  28  30
ENDBRANCH   5  28
ENDBRANCH   1   5
BRANCH   2  32
ATOM     32  C   UNL     1      -1.266   3.555  -2.144  1.00  0.00     0.173 C 
BRANCH  32  33
ATOM     33  C   UNL     1      -0.639   4.966  -2.267  1.00  0.00     0.172 C 
BRANCH  33  34
ATOM     34  C   UNL     1      -0.089   5.518  -0.937  1.00  0.00     0.183 C 
BRANCH  34  35
ATOM     35  C   UNL     1       1.447   5.527  -0.942  1.00  0.00     0.269 C 
BRANCH  35  36
ATOM     36  O   UNL     1       1.950   4.187  -0.755  1.00  0.00    -0.447 OA
BRANCH  36  37
ATOM     37  C   UNL     1       3.212   3.987  -1.196  1.00  0.00     0.404 C 
ATOM     38  O   UNL     1       4.113   3.447  -0.578  1.00  0.00    -0.225 OA
ATOM     39  N   UNL     1       3.346   4.476  -2.447  1.00  0.00    -0.335 N 
ATOM     40  H   UNL     1       2.602   5.025  -2.850  1.00  0.00     0.163 HD
ATOM     41  H   UNL     1       4.266   4.486  -2.864  1.00  0.00     0.163 HD
ENDBRANCH  36  37
ENDBRANCH  35  36
ENDBRANCH  34  35
BRANCH  34  42
ATOM     42  O   UNL     1      -0.521   4.675   0.146  1.00  0.00    -0.387 OA
ATOM     43  H   UNL     1      -0.117   5.039   0.955  1.00  0.00     0.211 HD
ENDBRANCH  34  42
ENDBRANCH  33  34
BRANCH  33  44
ATOM     44  O   UNL     1       0.445   4.908  -3.221  1.00  0.00    -0.388 OA
ATOM     45  H   UNL     1       1.159   4.464  -2.709  1.00  0.00     0.211 HD
ENDBRANCH  33  44
ENDBRANCH  32  33
BRANCH  32  46
ATOM     46  N   UNL     1      -0.268   2.472  -1.966  1.00  0.00    -0.318 NA
ATOM     47  H   UNL     1       0.267   2.381  -2.832  1.00  0.00     0.119 HD
ATOM     48  H   UNL     1      -0.775   1.589  -1.877  1.00  0.00     0.119 HD
ENDBRANCH  32  46
ENDBRANCH   2  32
TORSDOF 18
ENDMDL
MODEL 6
REMARK minimizedAffinity -8.48190975
REMARK minimizedRMSD -1
REMARK SMILES NC(=O)OC[C@H](O)[C@@H](O)[C@H](N)C(=O)N[C@H](C(=O)O)[C@H]1O[C@@H](n2cc(C(=O)O)c(=O)[nH]c2=O)[C@H](O)[C@@H]1O
REMARK SMILES IDX 14 1 12 2 13 3 15 5 19 6 21 7 33 8 20 9 35 10 22 11 23 12
REMARK SMILES IDX 24 13 28 14 31 15 29 16 30 17 32 18 25 20 26 21 27 22 34 24
REMARK SMILES IDX 36 26 16 28 17 29 18 30 10 32 8 33 6 34 5 35 4 36 2 37 3 38
REMARK SMILES IDX 1 39 7 42 9 44 11 46
REMARK H PARENT 14 4 30 19 27 23 34 25 36 27 18 31 1 40 1 41 7 43 9 45 11 47
REMARK H PARENT 11 48
REMARK Flexibility Score: inf
ROOT
ATOM      1  N   UNL     1       0.662   4.305  -2.926  1.00  0.00    -0.339 N 
ATOM      2  C   UNL     1       1.710   5.185  -2.775  1.00  0.00     0.240 C 
ATOM      3  O   UNL     1       1.563   6.403  -2.847  1.00  0.00    -0.273 OA
ATOM      4  H   UNL     1       0.820   3.341  -2.621  1.00  0.00     0.164 HD
ENDROOT
BRANCH   1   5
ATOM      5  C   UNL     1      -0.726   4.776  -2.948  1.00  0.00     0.224 C 
BRANCH   5   6
ATOM      6  C   UNL     1      -1.584   3.872  -3.843  1.00  0.00     0.186 C 
ATOM      7  C   UNL     1      -3.876   3.497  -4.021  1.00  0.00     0.255 C 
ATOM      8  C   UNL     1      -3.565   4.711  -4.911  1.00  0.00     0.196 C 
ATOM      9  O   UNL     1      -2.755   3.407  -3.120  1.00  0.00    -0.346 OA
ATOM     10  C   UNL     1      -2.074   4.519  -5.144  1.00  0.00     0.179 C 
BRANCH   7  11
ATOM     11  N   UNL     1      -5.122   3.637  -3.268  1.00  0.00    -0.270 N 
ATOM     12  C   UNL     1      -5.341   4.720  -2.432  1.00  0.00     0.115 C 
ATOM     13  C   UNL     1      -6.499   4.919  -1.784  1.00  0.00     0.141 C 
ATOM     14  C   UNL     1      -7.578   3.931  -1.990  1.00  0.00     0.268 C 
ATOM     15  C   UNL     1      -6.101   2.674  -3.477  1.00  0.00     0.330 C 
ATOM     16  O   UNL     1      -8.712   4.071  -1.547  1.00  0.00    -0.268 OA
ATOM     17  N   UNL     1      -7.256   2.848  -2.764  1.00  0.00    -0.273 N 
ATOM     18  O   UNL     1      -5.989   1.716  -4.237  1.00  0.00    -0.248 OA
ATOM     19  H   UNL     1      -7.992   2.179  -2.936  1.00  0.00     0.175 HD
BRANCH  13  20
ATOM     20  C   UNL     1      -6.667   6.073  -0.886  1.00  0.00     0.342 C 
ATOM     21  O   UNL     1      -6.486   7.245  -1.156  1.00  0.00    -0.246 OA
BRANCH  20  22
ATOM     22  O   UNL     1      -7.065   5.713   0.351  1.00  0.00    -0.477 OA
ATOM     23  H   UNL     1      -7.150   6.569   0.825  1.00  0.00     0.297 HD
ENDBRANCH  20  22
ENDBRANCH  13  20
ENDBRANCH   7  11
BRANCH   8  24
ATOM     24  O   UNL     1      -4.270   4.739  -6.148  1.00  0.00    -0.386 OA
ATOM     25  H   UNL     1      -4.186   5.635  -6.519  1.00  0.00     0.211 HD
ENDBRANCH   8  24
BRANCH  10  26
ATOM     26  O   UNL     1      -1.884   3.597  -6.231  1.00  0.00    -0.387 OA
ATOM     27  H   UNL     1      -2.668   3.680  -6.815  1.00  0.00     0.211 HD
ENDBRANCH  10  26
ENDBRANCH   5   6
BRANCH   5  28
ATOM     28  C   UNL     1      -1.214   4.802  -1.499  1.00  0.00     0.329 C 
ATOM     29  O   UNL     1      -0.719   4.220  -0.545  1.00  0.00    -0.250 OA
BRANCH  28  30
ATOM     30  O   UNL     1      -2.319   5.555  -1.321  1.00  0.00    -0.480 OA
ATOM     31  H   UNL     1      -2.438   5.562  -0.345  1.00  0.00     0.296 HD
ENDBRANCH  28  30
ENDBRANCH   5  28
ENDBRANCH   1   5
BRANCH   2  32
ATOM     32  C   UNL     1       3.051   4.538  -2.363  1.00  0.00     0.173 C 
BRANCH  32  33
ATOM     33  C   UNL     1       2.824   3.389  -1.350  1.00  0.00     0.172 C 
BRANCH  33  34
ATOM     34  C   UNL     1       4.116   2.650  -0.950  1.00  0.00     0.183 C 
BRANCH  34  35
ATOM     35  C   UNL     1       3.810   1.215  -0.498  1.00  0.00     0.269 C 
BRANCH  35  36
ATOM     36  O   UNL     1       2.403   0.936  -0.658  1.00  0.00    -0.447 OA
BRANCH  36  37
ATOM     37  C   UNL     1       1.814   0.349   0.408  1.00  0.00     0.404 C 
ATOM     38  O   UNL     1       1.838  -0.839   0.679  1.00  0.00    -0.225 OA
ATOM     39  N   UNL     1       1.184   1.279   1.156  1.00  0.00    -0.335 N 
ATOM     40  H   UNL     1       1.093   2.221   0.808  1.00  0.00     0.163 HD
ATOM     41  H   UNL     1       0.614   0.969   1.930  1.00  0.00     0.163 HD
ENDBRANCH  36  37
ENDBRANCH  35  36
ENDBRANCH  34  35
BRANCH  34  42
ATOM     42  O   UNL     1       4.738   3.335   0.151  1.00  0.00    -0.387 OA
ATOM     43  H   UNL     1       5.525   2.812   0.392  1.00  0.00     0.211 HD
ENDBRANCH  34  42
ENDBRANCH  33  34
BRANCH  33  44
ATOM     44  O   UNL     1       2.224   3.938  -0.155  1.00  0.00    -0.388 OA
ATOM     45  H   UNL     1       2.985   4.383   0.283  1.00  0.00     0.211 HD
ENDBRANCH  33  44
ENDBRANCH  32  33
BRANCH  32  46
ATOM     46  N   UNL     1       3.930   5.619  -1.852  1.00  0.00    -0.318 NA
ATOM     47  H   UNL     1       3.438   6.106  -1.100  1.00  0.00     0.119 HD
ATOM     48  H   UNL     1       4.033   6.316  -2.592  1.00  0.00     0.119 HD
ENDBRANCH  32  46
ENDBRANCH   2  32
TORSDOF 18
ENDMDL
MODEL 7
REMARK minimizedAffinity -8.36238861
REMARK minimizedRMSD -1
REMARK SMILES NC(=O)OC[C@H](O)[C@@H](O)[C@H](N)C(=O)N[C@H](C(=O)O)[C@H]1O[C@@H](n2cc(C(=O)O)c(=O)[nH]c2=O)[C@H](O)[C@@H]1O
REMARK SMILES IDX 14 1 12 2 13 3 15 5 19 6 21 7 33 8 20 9 35 10 22 11 23 12
REMARK SMILES IDX 24 13 28 14 31 15 29 16 30 17 32 18 25 20 26 21 27 22 34 24
REMARK SMILES IDX 36 26 16 28 17 29 18 30 10 32 8 33 6 34 5 35 4 36 2 37 3 38
REMARK SMILES IDX 1 39 7 42 9 44 11 46
REMARK H PARENT 14 4 30 19 27 23 34 25 36 27 18 31 1 40 1 41 7 43 9 45 11 47
REMARK H PARENT 11 48
REMARK Flexibility Score: inf
ROOT
ATOM      1  N   UNL     1      -4.467   2.766  -2.557  1.00  0.00    -0.339 N 
ATOM      2  C   UNL     1      -5.018   3.936  -3.030  1.00  0.00     0.240 C 
ATOM      3  O   UNL     1      -5.097   4.189  -4.231  1.00  0.00    -0.273 OA
ATOM      4  H   UNL     1      -4.651   2.531  -1.579  1.00  0.00     0.164 HD
ENDROOT
BRANCH   1   5
ATOM      5  C   UNL     1      -4.154   1.656  -3.461  1.00  0.00     0.224 C 
BRANCH   5   6
ATOM      6  C   UNL     1      -2.938   0.873  -2.946  1.00  0.00     0.186 C 
ATOM      7  C   UNL     1      -1.092   1.446  -1.647  1.00  0.00     0.255 C 
ATOM      8  C   UNL     1      -2.213   1.073  -0.665  1.00  0.00     0.196 C 
ATOM      9  O   UNL     1      -1.770   1.735  -2.885  1.00  0.00    -0.346 OA
ATOM     10  C   UNL     1      -3.111   0.234  -1.563  1.00  0.00     0.179 C 
BRANCH   7  11
ATOM     11  N   UNL     1      -0.308   2.603  -1.216  1.00  0.00    -0.270 N 
ATOM     12  C   UNL     1       1.028   2.480  -0.872  1.00  0.00     0.115 C 
ATOM     13  C   UNL     1       1.797   3.531  -0.543  1.00  0.00     0.141 C 
ATOM     14  C   UNL     1       1.172   4.869  -0.563  1.00  0.00     0.268 C 
ATOM     15  C   UNL     1      -0.942   3.839  -1.231  1.00  0.00     0.330 C 
ATOM     16  O   UNL     1       1.801   5.908  -0.398  1.00  0.00    -0.268 OA
ATOM     17  N   UNL     1      -0.170   4.898  -0.833  1.00  0.00    -0.273 N 
ATOM     18  O   UNL     1      -2.108   4.024  -1.569  1.00  0.00    -0.248 OA
ATOM     19  H   UNL     1      -0.605   5.808  -0.877  1.00  0.00     0.175 HD
BRANCH  13  20
ATOM     20  C   UNL     1       3.204   3.339  -0.157  1.00  0.00     0.342 C 
ATOM     21  O   UNL     1       3.625   2.696   0.785  1.00  0.00    -0.246 OA
BRANCH  20  22
ATOM     22  O   UNL     1       4.059   3.972  -0.984  1.00  0.00    -0.477 OA
ATOM     23  H   UNL     1       4.942   3.746  -0.622  1.00  0.00     0.297 HD
ENDBRANCH  20  22
ENDBRANCH  13  20
ENDBRANCH   7  11
BRANCH   8  24
ATOM     24  O   UNL     1      -1.789   0.321   0.467  1.00  0.00    -0.386 OA
ATOM     25  H   UNL     1      -2.508   0.340   1.124  1.00  0.00     0.211 HD
ENDBRANCH   8  24
BRANCH  10  26
ATOM     26  O   UNL     1      -2.613  -1.113  -1.599  1.00  0.00    -0.387 OA
ATOM     27  H   UNL     1      -2.151  -1.268  -0.747  1.00  0.00     0.211 HD
ENDBRANCH  10  26
ENDBRANCH   5   6
BRANCH   5  28
ATOM     28  C   UNL     1      -5.411   0.791  -3.560  1.00  0.00     0.329 C 
ATOM     29  O   UNL     1      -5.645  -0.077  -4.388  1.00  0.00    -0.250 OA
BRANCH  28  30
ATOM     30  O   UNL     1      -6.328   1.072  -2.610  1.00  0.00    -0.480 OA
ATOM     31  H   UNL     1      -7.010   0.375  -2.735  1.00  0.00     0.296 HD
ENDBRANCH  28  30
ENDBRANCH   5  28
ENDBRANCH   1   5
BRANCH   2  32
ATOM     32  C   UNL     1      -5.664   4.836  -1.953  1.00  0.00     0.173 C 
BRANCH  32  33
ATOM     33  C   UNL     1      -7.208   4.821  -2.071  1.00  0.00     0.172 C 
BRANCH  33  34
ATOM     34  C   UNL     1      -7.929   5.408  -0.841  1.00  0.00     0.183 C 
BRANCH  34  35
ATOM     35  C   UNL     1      -8.477   6.811  -1.145  1.00  0.00     0.269 C 
BRANCH  35  36
ATOM     36  O   UNL     1      -7.456   7.803  -0.907  1.00  0.00    -0.447 OA
BRANCH  36  37
ATOM     37  C   UNL     1      -7.285   8.695  -1.909  1.00  0.00     0.404 C 
ATOM     38  O   UNL     1      -6.989   8.432  -3.062  1.00  0.00    -0.225 OA
ATOM     39  N   UNL     1      -7.496   9.947  -1.452  1.00  0.00    -0.335 N 
ATOM     40  H   UNL     1      -7.610  10.104  -0.462  1.00  0.00     0.163 HD
ATOM     41  H   UNL     1      -7.303  10.723  -2.068  1.00  0.00     0.163 HD
ENDBRANCH  36  37
ENDBRANCH  35  36
ENDBRANCH  34  35
BRANCH  34  42
ATOM     42  O   UNL     1      -6.998   5.526   0.248  1.00  0.00    -0.387 OA
ATOM     43  H   UNL     1      -7.486   5.937   0.986  1.00  0.00     0.211 HD
ENDBRANCH  34  42
ENDBRANCH  33  34
BRANCH  33  44
ATOM     44  O   UNL     1      -7.590   5.590  -3.234  1.00  0.00    -0.388 OA
ATOM     45  H   UNL     1      -7.465   6.518  -2.929  1.00  0.00     0.211 HD
ENDBRANCH  33  44
ENDBRANCH  32  33
BRANCH  32  46
ATOM     46  N   UNL     1      -5.068   6.188  -2.085  1.00  0.00    -0.318 NA
ATOM     47  H   UNL     1      -5.200   6.506  -3.047  1.00  0.00     0.119 HD
ATOM     48  H   UNL     1      -4.055   6.097  -1.976  1.00  0.00     0.119 HD
ENDBRANCH  32  46
ENDBRANCH   2  32
TORSDOF 18
ENDMDL
MODEL 8
REMARK minimizedAffinity -8.28518581
REMARK minimizedRMSD -1
REMARK SMILES NC(=O)OC[C@H](O)[C@@H](O)[C@H](N)C(=O)N[C@H](C(=O)O)[C@H]1O[C@@H](n2cc(C(=O)O)c(=O)[nH]c2=O)[C@H](O)[C@@H]1O
REMARK SMILES IDX 14 1 12 2 13 3 15 5 19 6 21 7 33 8 20 9 35 10 22 11 23 12
REMARK SMILES IDX 24 13 28 14 31 15 29 16 30 17 32 18 25 20 26 21 27 22 34 24
REMARK SMILES IDX 36 26 16 28 17 29 18 30 10 32 8 33 6 34 5 35 4 36 2 37 3 38
REMARK SMILES IDX 1 39 7 42 9 44 11 46
REMARK H PARENT 14 4 30 19 27 23 34 25 36 27 18 31 1 40 1 41 7 43 9 45 11 47
REMARK H PARENT 11 48
REMARK Flexibility Score: inf
ROOT
ATOM      1  N   UNL     1      -4.649   3.006  -2.597  1.00  0.00    -0.339 N 
ATOM      2  C   UNL     1      -5.300   3.402  -3.744  1.00  0.00     0.240 C 
ATOM      3  O   UNL     1      -4.737   3.458  -4.835  1.00  0.00    -0.273 OA
ATOM      4  H   UNL     1      -5.233   2.761  -1.794  1.00  0.00     0.164 HD
ENDROOT
BRANCH   1   5
ATOM      5  C   UNL     1      -3.312   2.407  -2.653  1.00  0.00     0.224 C 
BRANCH   5   6
ATOM      6  C   UNL     1      -2.462   2.884  -1.468  1.00  0.00     0.186 C 
ATOM      7  C   UNL     1      -0.538   2.066  -0.440  1.00  0.00     0.255 C 
ATOM      8  C   UNL     1      -0.065   2.943  -1.610  1.00  0.00     0.196 C 
ATOM      9  O   UNL     1      -1.908   1.747  -0.752  1.00  0.00    -0.346 OA
ATOM     10  C   UNL     1      -1.296   3.810  -1.832  1.00  0.00     0.179 C 
BRANCH   7  11
ATOM     11  N   UNL     1       0.245   0.841  -0.283  1.00  0.00    -0.270 N 
ATOM     12  C   UNL     1      -0.211  -0.373  -0.769  1.00  0.00     0.115 C 
ATOM     13  C   UNL     1       0.512  -1.502  -0.708  1.00  0.00     0.141 C 
ATOM     14  C   UNL     1       1.855  -1.423  -0.098  1.00  0.00     0.268 C 
ATOM     15  C   UNL     1       1.494   0.959   0.315  1.00  0.00     0.330 C 
ATOM     16  O   UNL     1       2.649  -2.357  -0.095  1.00  0.00    -0.268 OA
ATOM     17  N   UNL     1       2.200  -0.209   0.431  1.00  0.00    -0.273 N 
ATOM     18  O   UNL     1       1.977   2.010   0.726  1.00  0.00    -0.248 OA
ATOM     19  H   UNL     1       3.125  -0.132   0.827  1.00  0.00     0.175 HD
BRANCH  13  20
ATOM     20  C   UNL     1      -0.035  -2.771  -1.215  1.00  0.00     0.342 C 
ATOM     21  O   UNL     1      -1.173  -3.180  -1.092  1.00  0.00    -0.246 OA
BRANCH  20  22
ATOM     22  O   UNL     1       0.884  -3.504  -1.876  1.00  0.00    -0.477 OA
ATOM     23  H   UNL     1       0.383  -4.297  -2.165  1.00  0.00     0.297 HD
ENDBRANCH  20  22
ENDBRANCH  13  20
ENDBRANCH   7  11
BRANCH   8  24
ATOM     24  O   UNL     1       1.075   3.749  -1.328  1.00  0.00    -0.386 OA
ATOM     25  H   UNL     1       1.426   4.076  -2.176  1.00  0.00     0.211 HD
ENDBRANCH   8  24
BRANCH  10  26
ATOM     26  O   UNL     1      -1.264   4.915  -0.913  1.00  0.00    -0.387 OA
ATOM     27  H   UNL     1      -0.320   5.095  -0.717  1.00  0.00     0.211 HD
ENDBRANCH  10  26
ENDBRANCH   5   6
BRANCH   5  28
ATOM     28  C   UNL     1      -3.501   0.890  -2.669  1.00  0.00     0.329 C 
ATOM     29  O   UNL     1      -2.947   0.086  -3.404  1.00  0.00    -0.250 OA
BRANCH  28  30
ATOM     30  O   UNL     1      -4.396   0.454  -1.757  1.00  0.00    -0.480 OA
ATOM     31  H   UNL     1      -4.323  -0.525  -1.814  1.00  0.00     0.296 HD
ENDBRANCH  28  30
ENDBRANCH   5  28
ENDBRANCH   1   5
BRANCH   2  32
ATOM     32  C   UNL     1      -6.821   3.625  -3.586  1.00  0.00     0.173 C 
BRANCH  32  33
ATOM     33  C   UNL     1      -7.123   5.066  -3.107  1.00  0.00     0.172 C 
BRANCH  33  34
ATOM     34  C   UNL     1      -7.585   5.146  -1.638  1.00  0.00     0.183 C 
BRANCH  34  35
ATOM     35  C   UNL     1      -8.227   6.509  -1.340  1.00  0.00     0.269 C 
BRANCH  35  36
ATOM     36  O   UNL     1      -7.209   7.469  -0.988  1.00  0.00    -0.447 OA
BRANCH  36  37
ATOM     37  C   UNL     1      -7.197   8.588  -1.746  1.00  0.00     0.404 C 
ATOM     38  O   UNL     1      -6.827   8.667  -2.905  1.00  0.00    -0.225 OA
ATOM     39  N   UNL     1      -7.663   9.635  -1.033  1.00  0.00    -0.335 N 
ATOM     40  H   UNL     1      -7.829   9.529  -0.043  1.00  0.00     0.163 HD
ATOM     41  H   UNL     1      -7.614  10.557  -1.442  1.00  0.00     0.163 HD
ENDBRANCH  36  37
ENDBRANCH  35  36
ENDBRANCH  34  35
BRANCH  34  42
ATOM     42  O   UNL     1      -6.448   4.996  -0.770  1.00  0.00    -0.387 OA
ATOM     43  H   UNL     1      -6.782   5.093   0.141  1.00  0.00     0.211 HD
ENDBRANCH  34  42
ENDBRANCH  33  34
BRANCH  33  44
ATOM     44  O   UNL     1      -5.925   5.862  -3.252  1.00  0.00    -0.388 OA
ATOM     45  H   UNL     1      -5.372   5.559  -2.496  1.00  0.00     0.211 HD
ENDBRANCH  33  44
ENDBRANCH  32  33
BRANCH  32  46
ATOM     46  N   UNL     1      -7.334   2.573  -2.675  1.00  0.00    -0.318 NA
ATOM     47  H   UNL     1      -6.802   2.612  -1.804  1.00  0.00     0.119 HD
ATOM     48  H   UNL     1      -7.103   1.664  -3.083  1.00  0.00     0.119 HD
ENDBRANCH  32  46
ENDBRANCH   2  32
TORSDOF 18
ENDMDL
MODEL 9
REMARK minimizedAffinity -8.26299191
REMARK minimizedRMSD -1
REMARK SMILES NC(=O)OC[C@H](O)[C@@H](O)[C@H](N)C(=O)N[C@H](C(=O)O)[C@H]1O[C@@H](n2cc(C(=O)O)c(=O)[nH]c2=O)[C@H](O)[C@@H]1O
REMARK SMILES IDX 14 1 12 2 13 3 15 5 19 6 21 7 33 8 20 9 35 10 22 11 23 12
REMARK SMILES IDX 24 13 28 14 31 15 29 16 30 17 32 18 25 20 26 21 27 22 34 24
REMARK SMILES IDX 36 26 16 28 17 29 18 30 10 32 8 33 6 34 5 35 4 36 2 37 3 38
REMARK SMILES IDX 1 39 7 42 9 44 11 46
REMARK H PARENT 14 4 30 19 27 23 34 25 36 27 18 31 1 40 1 41 7 43 9 45 11 47
REMARK H PARENT 11 48
REMARK Flexibility Score: inf
ROOT
ATOM      1  N   UNL     1      -4.196   4.354  -2.476  1.00  0.00    -0.339 N 
ATOM      2  C   UNL     1      -2.958   4.805  -2.876  1.00  0.00     0.240 C 
ATOM      3  O   UNL     1      -2.797   5.473  -3.895  1.00  0.00    -0.273 OA
ATOM      4  H   UNL     1      -4.277   4.017  -1.514  1.00  0.00     0.164 HD
ENDROOT
BRANCH   1   5
ATOM      5  C   UNL     1      -5.422   4.841  -3.115  1.00  0.00     0.224 C 
BRANCH   5   6
ATOM      6  C   UNL     1      -6.044   3.741  -3.987  1.00  0.00     0.186 C 
ATOM      7  C   UNL     1      -5.908   1.415  -3.977  1.00  0.00     0.255 C 
ATOM      8  C   UNL     1      -7.031   1.788  -2.996  1.00  0.00     0.196 C 
ATOM      9  O   UNL     1      -5.129   2.620  -4.117  1.00  0.00    -0.346 OA
ATOM     10  C   UNL     1      -7.381   3.187  -3.482  1.00  0.00     0.179 C 
BRANCH   7  11
ATOM     11  N   UNL     1      -5.067   0.318  -3.502  1.00  0.00    -0.270 N 
ATOM     12  C   UNL     1      -3.942   0.556  -2.728  1.00  0.00     0.115 C 
ATOM     13  C   UNL     1      -3.189  -0.428  -2.214  1.00  0.00     0.141 C 
ATOM     14  C   UNL     1      -3.599  -1.820  -2.490  1.00  0.00     0.268 C 
ATOM     15  C   UNL     1      -5.479  -0.974  -3.803  1.00  0.00     0.330 C 
ATOM     16  O   UNL     1      -3.060  -2.795  -1.978  1.00  0.00    -0.268 OA
ATOM     17  N   UNL     1      -4.670  -1.972  -3.329  1.00  0.00    -0.273 N 
ATOM     18  O   UNL     1      -6.487  -1.255  -4.444  1.00  0.00    -0.248 OA
ATOM     19  H   UNL     1      -4.978  -2.917  -3.506  1.00  0.00     0.175 HD
BRANCH  13  20
ATOM     20  C   UNL     1      -1.988  -0.118  -1.421  1.00  0.00     0.342 C 
ATOM     21  O   UNL     1      -1.748  -0.474  -0.284  1.00  0.00    -0.246 OA
BRANCH  20  22
ATOM     22  O   UNL     1      -1.107   0.648  -2.095  1.00  0.00    -0.477 OA
ATOM     23  H   UNL     1      -0.365   0.758  -1.462  1.00  0.00     0.297 HD
ENDBRANCH  20  22
ENDBRANCH  13  20
ENDBRANCH   7  11
BRANCH   8  24
ATOM     24  O   UNL     1      -8.172   0.937  -3.045  1.00  0.00    -0.386 OA
ATOM     25  H   UNL     1      -8.706   1.108  -2.248  1.00  0.00     0.211 HD
ENDBRANCH   8  24
BRANCH  10  26
ATOM     26  O   UNL     1      -8.297   3.086  -4.585  1.00  0.00    -0.387 OA
ATOM     27  H   UNL     1      -8.800   2.253  -4.461  1.00  0.00     0.211 HD
ENDBRANCH  10  26
ENDBRANCH   5   6
BRANCH   5  28
ATOM     28  C   UNL     1      -6.356   5.304  -1.997  1.00  0.00     0.329 C 
ATOM     29  O   UNL     1      -7.331   6.034  -2.107  1.00  0.00    -0.250 OA
BRANCH  28  30
ATOM     30  O   UNL     1      -6.009   4.832  -0.781  1.00  0.00    -0.480 OA
ATOM     31  H   UNL     1      -6.752   5.118  -0.203  1.00  0.00     0.296 HD
ENDBRANCH  28  30
ENDBRANCH   5  28
ENDBRANCH   1   5
BRANCH   2  32
ATOM     32  C   UNL     1      -1.811   4.537  -1.875  1.00  0.00     0.173 C 
BRANCH  32  33
ATOM     33  C   UNL     1      -0.466   4.330  -2.615  1.00  0.00     0.172 C 
BRANCH  33  34
ATOM     34  C   UNL     1       0.716   4.019  -1.676  1.00  0.00     0.183 C 
BRANCH  34  35
ATOM     35  C   UNL     1       2.037   4.533  -2.268  1.00  0.00     0.269 C 
BRANCH  35  36
ATOM     36  O   UNL     1       3.139   3.738  -1.783  1.00  0.00    -0.447 OA
BRANCH  36  37
ATOM     37  C   UNL     1       4.238   4.445  -1.432  1.00  0.00     0.404 C 
ATOM     38  O   UNL     1       5.078   4.108  -0.616  1.00  0.00    -0.225 OA
ATOM     39  N   UNL     1       4.283   5.601  -2.126  1.00  0.00    -0.335 N 
ATOM     40  H   UNL     1       3.491   5.877  -2.687  1.00  0.00     0.163 HD
ATOM     41  H   UNL     1       4.997   6.276  -1.892  1.00  0.00     0.163 HD
ENDBRANCH  36  37
ENDBRANCH  35  36
ENDBRANCH  34  35
BRANCH  34  42
ATOM     42  O   UNL     1       0.833   2.595  -1.510  1.00  0.00    -0.387 OA
ATOM     43  H   UNL     1       1.613   2.446  -0.945  1.00  0.00     0.211 HD
ENDBRANCH  34  42
ENDBRANCH  33  34
BRANCH  33  44
ATOM     44  O   UNL     1      -0.613   3.232  -3.544  1.00  0.00    -0.388 OA
ATOM     45  H   UNL     1      -0.588   2.446  -2.952  1.00  0.00     0.211 HD
ENDBRANCH  33  44
ENDBRANCH  32  33
BRANCH  32  46
ATOM     46  N   UNL     1      -2.213   3.382  -1.035  1.00  0.00    -0.318 NA
ATOM     47  H   UNL     1      -2.439   2.598  -1.650  1.00  0.00     0.119 HD
ATOM     48  H   UNL     1      -3.096   3.619  -0.577  1.00  0.00     0.119 HD
ENDBRANCH  32  46
ENDBRANCH   2  32
TORSDOF 18
ENDMDL
