MODEL 1
REMARK minimizedAffinity -5.7374444
REMARK minimizedRMSD -1
REMARK SMILES NC(=O)OC[C@H](O)[C@@H](O)[C@H](N)C(=O)N[C@H](C(=O)O)[C@H]1O[C@@H](n2cc(C(=O)O)c(=O)[nH]c2=O)[C@H](O)[C@@H]1O
REMARK SMILES IDX 14 1 12 2 13 3 15 5 19 6 21 7 33 8 20 9 35 10 22 11 23 12
REMARK SMILES IDX 24 13 28 14 31 15 29 16 30 17 32 18 25 20 26 21 27 22 34 24
REMARK SMILES IDX 36 26 16 28 17 29 18 30 10 32 8 33 6 34 5 35 4 36 2 37 3 38
REMARK SMILES IDX 1 39 7 42 9 44 11 46
REMARK H PARENT 14 4 30 19 27 23 34 25 36 27 18 31 1 40 1 41 7 43 9 45 11 47
REMARK H PARENT 11 48
REMARK Flexibility Score: inf
ROOT
ATOM      1  N   UNL     1     101.702 136.585  59.207  1.00  0.00    -0.339 N 
ATOM      2  C   UNL     1     101.546 136.670  60.573  1.00  0.00     0.240 C 
ATOM      3  O   UNL     1     101.753 135.717  61.320  1.00  0.00    -0.273 OA
ATOM      4  H   UNL     1     101.742 137.466  58.690  1.00  0.00     0.164 HD
ENDROOT
BRANCH   1   5
ATOM      5  C   UNL     1     102.346 135.422  58.590  1.00  0.00     0.224 C 
BRANCH   5   6
ATOM      6  C   UNL     1     101.378 134.722  57.626  1.00  0.00     0.186 C 
ATOM      7  C   UNL     1      99.128 135.031  57.106  1.00  0.00     0.255 C 
ATOM      8  C   UNL     1      99.918 135.991  56.202  1.00  0.00     0.196 C 
ATOM      9  O   UNL     1     100.034 134.710  58.180  1.00  0.00    -0.346 OA
ATOM     10  C   UNL     1     101.293 135.339  56.225  1.00  0.00     0.179 C 
BRANCH   7  11
ATOM     11  N   UNL     1      97.899 135.617  57.637  1.00  0.00    -0.270 N 
ATOM     12  C   UNL     1      97.910 136.403  58.779  1.00  0.00     0.115 C 
ATOM     13  C   UNL     1      96.815 137.016  59.253  1.00  0.00     0.141 C 
ATOM     14  C   UNL     1      95.553 136.840  58.505  1.00  0.00     0.268 C 
ATOM     15  C   UNL     1      96.732 135.409  56.913  1.00  0.00     0.330 C 
ATOM     16  O   UNL     1      94.522 137.445  58.774  1.00  0.00    -0.268 OA
ATOM     17  N   UNL     1      95.606 135.985  57.437  1.00  0.00    -0.273 N 
ATOM     18  O   UNL     1      96.661 134.763  55.871  1.00  0.00    -0.248 OA
ATOM     19  H   UNL     1      94.758 135.876  56.900  1.00  0.00     0.175 HD
BRANCH  13  20
ATOM     20  C   UNL     1      96.879 137.816  60.487  1.00  0.00     0.342 C 
ATOM     21  O   UNL     1      97.369 138.920  60.621  1.00  0.00    -0.246 OA
BRANCH  20  22
ATOM     22  O   UNL     1      96.313 137.192  61.539  1.00  0.00    -0.477 OA
ATOM     23  H   UNL     1      96.413 137.836  62.272  1.00  0.00     0.297 HD
ENDBRANCH  20  22
ENDBRANCH  13  20
ENDBRANCH   7  11
BRANCH   8  24
ATOM     24  O   UNL     1      99.430 136.092  54.868  1.00  0.00    -0.386 OA
ATOM     25  H   UNL     1      99.838 136.876  54.460  1.00  0.00     0.211 HD
ENDBRANCH   8  24
BRANCH  10  26
ATOM     26  O   UNL     1     101.331 134.289  55.244  1.00  0.00    -0.387 OA
ATOM     27  H   UNL     1     100.697 134.537  54.538  1.00  0.00     0.211 HD
ENDBRANCH  10  26
ENDBRANCH   5   6
BRANCH   5  28
ATOM     28  C   UNL     1     103.608 135.928  57.890  1.00  0.00     0.329 C 
ATOM     29  O   UNL     1     104.527 135.253  57.449  1.00  0.00    -0.250 OA
BRANCH  28  30
ATOM     30  O   UNL     1     103.660 137.273  57.790  1.00  0.00    -0.480 OA
ATOM     31  H   UNL     1     104.454 137.432  57.232  1.00  0.00     0.296 HD
ENDBRANCH  28  30
ENDBRANCH   5  28
ENDBRANCH   1   5
BRANCH   2  32
ATOM     32  C   UNL     1     101.239 138.088  61.107  1.00  0.00     0.173 C 
BRANCH  32  33
ATOM     33  C   UNL     1     100.561 138.021  62.498  1.00  0.00     0.172 C 
BRANCH  33  34
ATOM     34  C   UNL     1     100.279 139.404  63.117  1.00  0.00     0.183 C 
BRANCH  34  35
ATOM     35  C   UNL     1      99.879 139.272  64.594  1.00  0.00     0.269 C 
BRANCH  35  36
ATOM     36  O   UNL     1      98.554 139.808  64.797  1.00  0.00    -0.447 OA
BRANCH  36  37
ATOM     37  C   UNL     1      97.651 138.924  65.277  1.00  0.00     0.404 C 
ATOM     38  O   UNL     1      97.230 138.875  66.420  1.00  0.00    -0.225 OA
ATOM     39  N   UNL     1      97.264 138.081  64.296  1.00  0.00    -0.335 N 
ATOM     40  H   UNL     1      97.746 138.093  63.410  1.00  0.00     0.163 HD
ATOM     41  H   UNL     1      96.667 137.303  64.537  1.00  0.00     0.163 HD
ENDBRANCH  36  37
ENDBRANCH  35  36
ENDBRANCH  34  35
BRANCH  34  42
ATOM     42  O   UNL     1      99.187 140.027  62.419  1.00  0.00    -0.387 OA
ATOM     43  H   UNL     1      99.020 140.876  62.869  1.00  0.00     0.211 HD
ENDBRANCH  34  42
ENDBRANCH  33  34
BRANCH  33  44
ATOM     44  O   UNL     1      99.306 137.315  62.367  1.00  0.00    -0.388 OA
ATOM     45  H   UNL     1      98.725 137.987  61.942  1.00  0.00     0.211 HD
ENDBRANCH  33  44
ENDBRANCH  32  33
BRANCH  32  46
ATOM     46  N   UNL     1     100.427 138.785  60.080  1.00  0.00    -0.318 NA
ATOM     47  H   UNL     1      99.604 138.215  59.877  1.00  0.00     0.119 HD
ATOM     48  H   UNL     1     100.962 138.793  59.209  1.00  0.00     0.119 HD
ENDBRANCH  32  46
ENDBRANCH   2  32
TORSDOF 18
ENDMDL
MODEL 2
REMARK minimizedAffinity -5.64964437
REMARK minimizedRMSD -1
REMARK SMILES NC(=O)OC[C@H](O)[C@@H](O)[C@H](N)C(=O)N[C@H](C(=O)O)[C@H]1O[C@@H](n2cc(C(=O)O)c(=O)[nH]c2=O)[C@H](O)[C@@H]1O
REMARK SMILES IDX 14 1 12 2 13 3 15 5 19 6 21 7 33 8 20 9 35 10 22 11 23 12
REMARK SMILES IDX 24 13 28 14 31 15 29 16 30 17 32 18 25 20 26 21 27 22 34 24
REMARK SMILES IDX 36 26 16 28 17 29 18 30 10 32 8 33 6 34 5 35 4 36 2 37 3 38
REMARK SMILES IDX 1 39 7 42 9 44 11 46
REMARK H PARENT 14 4 30 19 27 23 34 25 36 27 18 31 1 40 1 41 7 43 9 45 11 47
REMARK H PARENT 11 48
REMARK Flexibility Score: inf
ROOT
ATOM      1  N   UNL     1     100.430 138.105  60.330  1.00  0.00    -0.339 N 
ATOM      2  C   UNL     1     100.887 137.866  59.054  1.00  0.00     0.240 C 
ATOM      3  O   UNL     1     101.214 138.772  58.290  1.00  0.00    -0.273 OA
ATOM      4  H   UNL     1     100.407 137.307  60.970  1.00  0.00     0.164 HD
ENDROOT
BRANCH   1   5
ATOM      5  C   UNL     1     100.527 139.437  60.933  1.00  0.00     0.224 C 
BRANCH   5   6
ATOM      6  C   UNL     1      99.141 139.930  61.368  1.00  0.00     0.186 C 
ATOM      7  C   UNL     1      96.980 139.110  61.077  1.00  0.00     0.255 C 
ATOM      8  C   UNL     1      97.539 138.422  62.333  1.00  0.00     0.196 C 
ATOM      9  O   UNL     1      98.143 139.583  60.370  1.00  0.00    -0.346 OA
ATOM     10  C   UNL     1      98.650 139.389  62.716  1.00  0.00     0.179 C 
BRANCH   7  11
ATOM     11  N   UNL     1      96.200 138.212  60.226  1.00  0.00    -0.270 N 
ATOM     12  C   UNL     1      94.962 138.586  59.729  1.00  0.00     0.115 C 
ATOM     13  C   UNL     1      94.252 137.818  58.888  1.00  0.00     0.141 C 
ATOM     14  C   UNL     1      94.838 136.526  58.479  1.00  0.00     0.268 C 
ATOM     15  C   UNL     1      96.782 136.998  59.884  1.00  0.00     0.330 C 
ATOM     16  O   UNL     1      94.339 135.800  57.627  1.00  0.00    -0.268 OA
ATOM     17  N   UNL     1      96.024 136.193  59.076  1.00  0.00    -0.273 N 
ATOM     18  O   UNL     1      97.893 136.626  60.252  1.00  0.00    -0.248 OA
ATOM     19  H   UNL     1      96.451 135.325  58.786  1.00  0.00     0.175 HD
BRANCH  13  20
ATOM     20  C   UNL     1      92.928 138.253  58.413  1.00  0.00     0.342 C 
ATOM     21  O   UNL     1      92.005 138.664  59.090  1.00  0.00    -0.246 OA
BRANCH  20  22
ATOM     22  O   UNL     1      92.799 138.156  57.075  1.00  0.00    -0.477 OA
ATOM     23  H   UNL     1      91.892 138.488  56.905  1.00  0.00     0.297 HD
ENDBRANCH  20  22
ENDBRANCH  13  20
ENDBRANCH   7  11
BRANCH   8  24
ATOM     24  O   UNL     1      96.605 138.279  63.399  1.00  0.00    -0.386 OA
ATOM     25  H   UNL     1      96.976 137.641  64.036  1.00  0.00     0.211 HD
ENDBRANCH   8  24
BRANCH  10  26
ATOM     26  O   UNL     1      98.090 140.468  63.483  1.00  0.00    -0.387 OA
ATOM     27  H   UNL     1      97.298 140.112  63.940  1.00  0.00     0.211 HD
ENDBRANCH  10  26
ENDBRANCH   5   6
BRANCH   5  28
ATOM     28  C   UNL     1     101.507 139.330  62.102  1.00  0.00     0.329 C 
ATOM     29  O   UNL     1     102.011 140.251  62.728  1.00  0.00    -0.250 OA
BRANCH  28  30
ATOM     30  O   UNL     1     101.820 138.057  62.421  1.00  0.00    -0.480 OA
ATOM     31  H   UNL     1     102.355 138.150  63.241  1.00  0.00     0.296 HD
ENDBRANCH  28  30
ENDBRANCH   5  28
ENDBRANCH   1   5
BRANCH   2  32
ATOM     32  C   UNL     1     101.099 136.375  58.705  1.00  0.00     0.173 C 
BRANCH  32  33
ATOM     33  C   UNL     1     100.149 135.932  57.565  1.00  0.00     0.172 C 
BRANCH  33  34
ATOM     34  C   UNL     1      99.699 134.461  57.670  1.00  0.00     0.183 C 
BRANCH  34  35
ATOM     35  C   UNL     1      99.355 133.893  56.285  1.00  0.00     0.269 C 
BRANCH  35  36
ATOM     36  O   UNL     1      99.026 134.966  55.378  1.00  0.00    -0.447 OA
BRANCH  36  37
ATOM     37  C   UNL     1      97.765 134.932  54.892  1.00  0.00     0.404 C 
ATOM     38  O   UNL     1      97.442 134.645  53.752  1.00  0.00    -0.225 OA
ATOM     39  N   UNL     1      96.887 135.264  55.862  1.00  0.00    -0.335 N 
ATOM     40  H   UNL     1      97.229 135.615  56.744  1.00  0.00     0.163 HD
ATOM     41  H   UNL     1      95.915 135.379  55.613  1.00  0.00     0.163 HD
ENDBRANCH  36  37
ENDBRANCH  35  36
ENDBRANCH  34  35
BRANCH  34  42
ATOM     42  O   UNL     1      98.517 134.379  58.485  1.00  0.00    -0.387 OA
ATOM     43  H   UNL     1      98.249 133.442  58.489  1.00  0.00     0.211 HD
ENDBRANCH  34  42
ENDBRANCH  33  34
BRANCH  33  44
ATOM     44  O   UNL     1      98.973 136.772  57.591  1.00  0.00    -0.388 OA
ATOM     45  H   UNL     1      98.471 136.416  58.360  1.00  0.00     0.211 HD
ENDBRANCH  33  44
ENDBRANCH  32  33
BRANCH  32  46
ATOM     46  N   UNL     1     100.934 135.596  59.956  1.00  0.00    -0.318 NA
ATOM     47  H   UNL     1     100.021 135.818  60.357  1.00  0.00     0.119 HD
ATOM     48  H   UNL     1     101.611 135.948  60.637  1.00  0.00     0.119 HD
ENDBRANCH  32  46
ENDBRANCH   2  32
TORSDOF 18
ENDMDL
MODEL 3
REMARK minimizedAffinity -5.60987711
REMARK minimizedRMSD -1
REMARK SMILES NC(=O)OC[C@H](O)[C@@H](O)[C@H](N)C(=O)N[C@H](C(=O)O)[C@H]1O[C@@H](n2cc(C(=O)O)c(=O)[nH]c2=O)[C@H](O)[C@@H]1O
REMARK SMILES IDX 14 1 12 2 13 3 15 5 19 6 21 7 33 8 20 9 35 10 22 11 23 12
REMARK SMILES IDX 24 13 28 14 31 15 29 16 30 17 32 18 25 20 26 21 27 22 34 24
REMARK SMILES IDX 36 26 16 28 17 29 18 30 10 32 8 33 6 34 5 35 4 36 2 37 3 38
REMARK SMILES IDX 1 39 7 42 9 44 11 46
REMARK H PARENT 14 4 30 19 27 23 34 25 36 27 18 31 1 40 1 41 7 43 9 45 11 47
REMARK H PARENT 11 48
REMARK Flexibility Score: inf
ROOT
ATOM      1  N   UNL     1      97.859 135.785  55.065  1.00  0.00    -0.339 N 
ATOM      2  C   UNL     1      97.226 136.915  55.536  1.00  0.00     0.240 C 
ATOM      3  O   UNL     1      97.498 138.041  55.126  1.00  0.00    -0.273 OA
ATOM      4  H   UNL     1      97.419 134.887  55.278  1.00  0.00     0.164 HD
ENDROOT
BRANCH   1   5
ATOM      5  C   UNL     1      98.724 135.839  53.884  1.00  0.00     0.224 C 
BRANCH   5   6
ATOM      6  C   UNL     1     100.116 135.282  54.214  1.00  0.00     0.186 C 
ATOM      7  C   UNL     1     101.276 134.935  56.204  1.00  0.00     0.255 C 
ATOM      8  C   UNL     1     100.419 133.680  55.978  1.00  0.00     0.196 C 
ATOM      9  O   UNL     1     100.664 135.949  55.383  1.00  0.00    -0.346 OA
ATOM     10  C   UNL     1     100.167 133.772  54.480  1.00  0.00     0.179 C 
BRANCH   7  11
ATOM     11  N   UNL     1     101.310 135.367  57.601  1.00  0.00    -0.270 N 
ATOM     12  C   UNL     1     100.416 136.308  58.086  1.00  0.00     0.115 C 
ATOM     13  C   UNL     1     100.371 136.673  59.377  1.00  0.00     0.141 C 
ATOM     14  C   UNL     1     101.319 136.025  60.306  1.00  0.00     0.268 C 
ATOM     15  C   UNL     1     102.231 134.746  58.434  1.00  0.00     0.330 C 
ATOM     16  O   UNL     1     101.290 136.190  61.520  1.00  0.00    -0.268 OA
ATOM     17  N   UNL     1     102.222 135.169  59.737  1.00  0.00    -0.273 N 
ATOM     18  O   UNL     1     103.019 133.873  58.080  1.00  0.00    -0.248 OA
ATOM     19  H   UNL     1     102.859 134.698  60.363  1.00  0.00     0.175 HD
BRANCH  13  20
ATOM     20  C   UNL     1      99.419 137.699  59.832  1.00  0.00     0.342 C 
ATOM     21  O   UNL     1      99.350 138.195  60.941  1.00  0.00    -0.246 OA
BRANCH  20  22
ATOM     22  O   UNL     1      98.564 138.081  58.862  1.00  0.00    -0.477 OA
ATOM     23  H   UNL     1      98.012 138.766  59.296  1.00  0.00     0.297 HD
ENDBRANCH  20  22
ENDBRANCH  13  20
ENDBRANCH   7  11
BRANCH   8  24
ATOM     24  O   UNL     1     101.063 132.452  56.306  1.00  0.00    -0.386 OA
ATOM     25  H   UNL     1     100.379 131.760  56.351  1.00  0.00     0.211 HD
ENDBRANCH   8  24
BRANCH  10  26
ATOM     26  O   UNL     1     101.288 133.207  53.779  1.00  0.00    -0.387 OA
ATOM     27  H   UNL     1     101.682 132.532  54.371  1.00  0.00     0.211 HD
ENDBRANCH  10  26
ENDBRANCH   5   6
BRANCH   5  28
ATOM     28  C   UNL     1      98.022 135.050  52.778  1.00  0.00     0.329 C 
ATOM     29  O   UNL     1      96.913 134.540  52.828  1.00  0.00    -0.250 OA
BRANCH  28  30
ATOM     30  O   UNL     1      98.762 134.931  51.656  1.00  0.00    -0.480 OA
ATOM     31  H   UNL     1      98.145 134.508  51.017  1.00  0.00     0.296 HD
ENDBRANCH  28  30
ENDBRANCH   5  28
ENDBRANCH   1   5
BRANCH   2  32
ATOM     32  C   UNL     1      96.052 136.649  56.505  1.00  0.00     0.173 C 
BRANCH  32  33
ATOM     33  C   UNL     1      95.254 137.948  56.777  1.00  0.00     0.172 C 
BRANCH  33  34
ATOM     34  C   UNL     1      93.944 137.718  57.558  1.00  0.00     0.183 C 
BRANCH  34  35
ATOM     35  C   UNL     1      94.037 138.313  58.971  1.00  0.00     0.269 C 
BRANCH  35  36
ATOM     36  O   UNL     1      94.637 137.358  59.871  1.00  0.00    -0.447 OA
BRANCH  36  37
ATOM     37  C   UNL     1      95.764 137.785  60.484  1.00  0.00     0.404 C 
ATOM     38  O   UNL     1      96.109 138.946  60.627  1.00  0.00    -0.225 OA
ATOM     39  N   UNL     1      96.474 136.728  60.933  1.00  0.00    -0.335 N 
ATOM     40  H   UNL     1      96.199 135.795  60.668  1.00  0.00     0.163 HD
ATOM     41  H   UNL     1      97.391 136.894  61.322  1.00  0.00     0.163 HD
ENDBRANCH  36  37
ENDBRANCH  35  36
ENDBRANCH  34  35
BRANCH  34  42
ATOM     42  O   UNL     1      93.708 136.305  57.690  1.00  0.00    -0.387 OA
ATOM     43  H   UNL     1      92.896 136.210  58.221  1.00  0.00     0.211 HD
ENDBRANCH  34  42
ENDBRANCH  33  34
BRANCH  33  44
ATOM     44  O   UNL     1      96.086 138.851  57.539  1.00  0.00    -0.388 OA
ATOM     45  H   UNL     1      96.059 138.460  58.442  1.00  0.00     0.211 HD
ENDBRANCH  33  44
ENDBRANCH  32  33
BRANCH  32  46
ATOM     46  N   UNL     1      96.615 136.027  57.729  1.00  0.00    -0.318 NA
ATOM     47  H   UNL     1      97.345 136.640  58.096  1.00  0.00     0.119 HD
ATOM     48  H   UNL     1      97.105 135.174  57.450  1.00  0.00     0.119 HD
ENDBRANCH  32  46
ENDBRANCH   2  32
TORSDOF 18
ENDMDL
MODEL 4
REMARK minimizedAffinity -5.57081842
REMARK minimizedRMSD -1
REMARK SMILES NC(=O)OC[C@H](O)[C@@H](O)[C@H](N)C(=O)N[C@H](C(=O)O)[C@H]1O[C@@H](n2cc(C(=O)O)c(=O)[nH]c2=O)[C@H](O)[C@@H]1O
REMARK SMILES IDX 14 1 12 2 13 3 15 5 19 6 21 7 33 8 20 9 35 10 22 11 23 12
REMARK SMILES IDX 24 13 28 14 31 15 29 16 30 17 32 18 25 20 26 21 27 22 34 24
REMARK SMILES IDX 36 26 16 28 17 29 18 30 10 32 8 33 6 34 5 35 4 36 2 37 3 38
REMARK SMILES IDX 1 39 7 42 9 44 11 46
REMARK H PARENT 14 4 30 19 27 23 34 25 36 27 18 31 1 40 1 41 7 43 9 45 11 47
REMARK H PARENT 11 48
REMARK Flexibility Score: inf
ROOT
ATOM      1  N   UNL     1      97.704 136.037  57.482  1.00  0.00    -0.339 N 
ATOM      2  C   UNL     1      97.037 137.067  58.107  1.00  0.00     0.240 C 
ATOM      3  O   UNL     1      96.902 138.174  57.589  1.00  0.00    -0.273 OA
ATOM      4  H   UNL     1      97.569 135.098  57.866  1.00  0.00     0.164 HD
ENDROOT
BRANCH   1   5
ATOM      5  C   UNL     1      98.088 136.128  56.071  1.00  0.00     0.224 C 
BRANCH   5   6
ATOM      6  C   UNL     1      99.615 136.065  55.927  1.00  0.00     0.186 C 
ATOM      7  C   UNL     1     101.384 136.469  57.388  1.00  0.00     0.255 C 
ATOM      8  C   UNL     1     100.972 135.004  57.601  1.00  0.00     0.196 C 
ATOM      9  O   UNL     1     100.244 137.082  56.753  1.00  0.00    -0.346 OA
ATOM     10  C   UNL     1     100.249 134.718  56.293  1.00  0.00     0.179 C 
BRANCH   7  11
ATOM     11  N   UNL     1     101.706 137.166  58.633  1.00  0.00    -0.270 N 
ATOM     12  C   UNL     1     100.723 137.482  59.556  1.00  0.00     0.115 C 
ATOM     13  C   UNL     1     100.991 138.055  60.740  1.00  0.00     0.141 C 
ATOM     14  C   UNL     1     102.405 138.344  61.056  1.00  0.00     0.268 C 
ATOM     15  C   UNL     1     103.046 137.437  58.879  1.00  0.00     0.330 C 
ATOM     16  O   UNL     1     102.779 138.753  62.149  1.00  0.00    -0.268 OA
ATOM     17  N   UNL     1     103.306 138.078  60.061  1.00  0.00    -0.273 N 
ATOM     18  O   UNL     1     103.970 137.143  58.126  1.00  0.00    -0.248 OA
ATOM     19  H   UNL     1     104.279 138.246  60.273  1.00  0.00     0.175 HD
BRANCH  13  20
ATOM     20  C   UNL     1      99.904 138.395  61.672  1.00  0.00     0.342 C 
ATOM     21  O   UNL     1      99.499 139.507  61.952  1.00  0.00    -0.246 OA
BRANCH  20  22
ATOM     22  O   UNL     1      99.345 137.306  62.236  1.00  0.00    -0.477 OA
ATOM     23  H   UNL     1      98.639 137.678  62.808  1.00  0.00     0.297 HD
ENDBRANCH  20  22
ENDBRANCH  13  20
ENDBRANCH   7  11
BRANCH   8  24
ATOM     24  O   UNL     1     102.058 134.101  57.786  1.00  0.00    -0.386 OA
ATOM     25  H   UNL     1     101.696 133.268  58.138  1.00  0.00     0.211 HD
ENDBRANCH   8  24
BRANCH  10  26
ATOM     26  O   UNL     1     101.216 134.363  55.290  1.00  0.00    -0.387 OA
ATOM     27  H   UNL     1     101.978 133.961  55.760  1.00  0.00     0.211 HD
ENDBRANCH  10  26
ENDBRANCH   5   6
BRANCH   5  28
ATOM     28  C   UNL     1      97.381 134.988  55.339  1.00  0.00     0.329 C 
ATOM     29  O   UNL     1      97.429 134.738  54.143  1.00  0.00    -0.250 OA
BRANCH  28  30
ATOM     30  O   UNL     1      96.630 134.216  56.152  1.00  0.00    -0.480 OA
ATOM     31  H   UNL     1      96.339 133.481  55.567  1.00  0.00     0.296 HD
ENDBRANCH  28  30
ENDBRANCH   5  28
ENDBRANCH   1   5
BRANCH   2  32
ATOM     32  C   UNL     1      96.345 136.686  59.435  1.00  0.00     0.173 C 
BRANCH  32  33
ATOM     33  C   UNL     1      96.354 137.876  60.426  1.00  0.00     0.172 C 
BRANCH  33  34
ATOM     34  C   UNL     1      95.085 138.748  60.359  1.00  0.00     0.183 C 
BRANCH  34  35
ATOM     35  C   UNL     1      93.852 137.896  60.023  1.00  0.00     0.269 C 
BRANCH  35  36
ATOM     36  O   UNL     1      93.251 138.358  58.795  1.00  0.00    -0.447 OA
BRANCH  36  37
ATOM     37  C   UNL     1      93.366 137.507  57.750  1.00  0.00     0.404 C 
ATOM     38  O   UNL     1      93.011 136.341  57.731  1.00  0.00    -0.225 OA
ATOM     39  N   UNL     1      93.937 138.138  56.703  1.00  0.00    -0.335 N 
ATOM     40  H   UNL     1      94.324 139.061  56.827  1.00  0.00     0.163 HD
ATOM     41  H   UNL     1      94.178 137.594  55.887  1.00  0.00     0.163 HD
ENDBRANCH  36  37
ENDBRANCH  35  36
ENDBRANCH  34  35
BRANCH  34  42
ATOM     42  O   UNL     1      95.235 139.733  59.321  1.00  0.00    -0.387 OA
ATOM     43  H   UNL     1      94.397 140.231  59.290  1.00  0.00     0.211 HD
ENDBRANCH  34  42
ENDBRANCH  33  34
BRANCH  33  44
ATOM     44  O   UNL     1      96.482 137.358  61.769  1.00  0.00    -0.388 OA
ATOM     45  H   UNL     1      95.579 137.010  61.952  1.00  0.00     0.211 HD
ENDBRANCH  33  44
ENDBRANCH  32  33
BRANCH  32  46
ATOM     46  N   UNL     1      97.017 135.471  59.955  1.00  0.00    -0.318 NA
ATOM     47  H   UNL     1      98.017 135.662  60.032  1.00  0.00     0.119 HD
ATOM     48  H   UNL     1      96.943 134.741  59.243  1.00  0.00     0.119 HD
ENDBRANCH  32  46
ENDBRANCH   2  32
TORSDOF 18
ENDMDL
MODEL 5
REMARK minimizedAffinity -5.50904465
REMARK minimizedRMSD -1
REMARK SMILES NC(=O)OC[C@H](O)[C@@H](O)[C@H](N)C(=O)N[C@H](C(=O)O)[C@H]1O[C@@H](n2cc(C(=O)O)c(=O)[nH]c2=O)[C@H](O)[C@@H]1O
REMARK SMILES IDX 14 1 12 2 13 3 15 5 19 6 21 7 33 8 20 9 35 10 22 11 23 12
REMARK SMILES IDX 24 13 28 14 31 15 29 16 30 17 32 18 25 20 26 21 27 22 34 24
REMARK SMILES IDX 36 26 16 28 17 29 18 30 10 32 8 33 6 34 5 35 4 36 2 37 3 38
REMARK SMILES IDX 1 39 7 42 9 44 11 46
REMARK H PARENT 14 4 30 19 27 23 34 25 36 27 18 31 1 40 1 41 7 43 9 45 11 47
REMARK H PARENT 11 48
REMARK Flexibility Score: inf
ROOT
ATOM      1  N   UNL     1      98.836 137.314  60.956  1.00  0.00    -0.339 N 
ATOM      2  C   UNL     1      98.243 137.309  59.713  1.00  0.00     0.240 C 
ATOM      3  O   UNL     1      98.363 138.242  58.922  1.00  0.00    -0.273 OA
ATOM      4  H   UNL     1      98.885 136.419  61.449  1.00  0.00     0.164 HD
ENDROOT
BRANCH   1   5
ATOM      5  C   UNL     1      99.834 138.325  61.315  1.00  0.00     0.224 C 
BRANCH   5   6
ATOM      6  C   UNL     1      99.310 139.215  62.451  1.00  0.00     0.186 C 
ATOM      7  C   UNL     1      97.178 139.714  63.245  1.00  0.00     0.255 C 
ATOM      8  C   UNL     1      97.615 138.425  63.958  1.00  0.00     0.196 C 
ATOM      9  O   UNL     1      98.030 139.799  62.087  1.00  0.00    -0.346 OA
ATOM     10  C   UNL     1      99.126 138.510  63.800  1.00  0.00     0.179 C 
BRANCH   7  11
ATOM     11  N   UNL     1      95.772 139.703  62.842  1.00  0.00    -0.270 N 
ATOM     12  C   UNL     1      95.373 139.142  61.640  1.00  0.00     0.115 C 
ATOM     13  C   UNL     1      94.086 139.048  61.270  1.00  0.00     0.141 C 
ATOM     14  C   UNL     1      93.066 139.565  62.205  1.00  0.00     0.268 C 
ATOM     15  C   UNL     1      94.850 140.219  63.743  1.00  0.00     0.330 C 
ATOM     16  O   UNL     1      91.861 139.427  62.030  1.00  0.00    -0.268 OA
ATOM     17  N   UNL     1      93.544 140.178  63.332  1.00  0.00    -0.273 N 
ATOM     18  O   UNL     1      95.132 140.688  64.842  1.00  0.00    -0.248 OA
ATOM     19  H   UNL     1      92.858 140.512  63.993  1.00  0.00     0.175 HD
BRANCH  13  20
ATOM     20  C   UNL     1      93.720 138.467  59.968  1.00  0.00     0.342 C 
ATOM     21  O   UNL     1      94.470 137.971  59.150  1.00  0.00    -0.246 OA
BRANCH  20  22
ATOM     22  O   UNL     1      92.395 138.528  59.728  1.00  0.00    -0.477 OA
ATOM     23  H   UNL     1      92.299 138.099  58.850  1.00  0.00     0.297 HD
ENDBRANCH  20  22
ENDBRANCH  13  20
ENDBRANCH   7  11
BRANCH   8  24
ATOM     24  O   UNL     1      97.255 138.354  65.334  1.00  0.00    -0.386 OA
ATOM     25  H   UNL     1      97.364 137.430  65.623  1.00  0.00     0.211 HD
ENDBRANCH   8  24
BRANCH  10  26
ATOM     26  O   UNL     1      99.662 139.340  64.844  1.00  0.00    -0.387 OA
ATOM     27  H   UNL     1      99.052 139.264  65.608  1.00  0.00     0.211 HD
ENDBRANCH  10  26
ENDBRANCH   5   6
BRANCH   5  28
ATOM     28  C   UNL     1     101.113 137.579  61.696  1.00  0.00     0.329 C 
ATOM     29  O   UNL     1     102.182 138.070  62.028  1.00  0.00    -0.250 OA
BRANCH  28  30
ATOM     30  O   UNL     1     100.988 136.237  61.627  1.00  0.00    -0.480 OA
ATOM     31  H   UNL     1     101.836 135.907  62.000  1.00  0.00     0.296 HD
ENDBRANCH  28  30
ENDBRANCH   5  28
ENDBRANCH   1   5
BRANCH   2  32
ATOM     32  C   UNL     1      97.542 135.986  59.331  1.00  0.00     0.173 C 
BRANCH  32  33
ATOM     33  C   UNL     1      97.145 135.982  57.833  1.00  0.00     0.172 C 
BRANCH  33  34
ATOM     34  C   UNL     1      97.954 134.984  56.981  1.00  0.00     0.183 C 
BRANCH  34  35
ATOM     35  C   UNL     1      99.094 135.696  56.238  1.00  0.00     0.269 C 
BRANCH  35  36
ATOM     36  O   UNL     1     100.176 135.982  57.150  1.00  0.00    -0.447 OA
BRANCH  36  37
ATOM     37  C   UNL     1     100.851 134.896  57.590  1.00  0.00     0.404 C 
ATOM     38  O   UNL     1     101.338 134.022  56.893  1.00  0.00    -0.225 OA
ATOM     39  N   UNL     1     100.918 134.909  58.938  1.00  0.00    -0.335 N 
ATOM     40  H   UNL     1     100.384 135.589  59.457  1.00  0.00     0.163 HD
ATOM     41  H   UNL     1     101.306 134.105  59.409  1.00  0.00     0.163 HD
ENDBRANCH  36  37
ENDBRANCH  35  36
ENDBRANCH  34  35
BRANCH  34  42
ATOM     42  O   UNL     1      97.092 134.388  55.996  1.00  0.00    -0.387 OA
ATOM     43  H   UNL     1      97.653 133.798  55.459  1.00  0.00     0.211 HD
ENDBRANCH  34  42
ENDBRANCH  33  34
BRANCH  33  44
ATOM     44  O   UNL     1      95.744 135.643  57.727  1.00  0.00    -0.388 OA
ATOM     45  H   UNL     1      95.745 134.672  57.891  1.00  0.00     0.211 HD
ENDBRANCH  33  44
ENDBRANCH  32  33
BRANCH  32  46
ATOM     46  N   UNL     1      96.394 135.806  60.252  1.00  0.00    -0.318 NA
ATOM     47  H   UNL     1      95.802 136.638  60.198  1.00  0.00     0.119 HD
ATOM     48  H   UNL     1      96.756 135.805  61.208  1.00  0.00     0.119 HD
ENDBRANCH  32  46
ENDBRANCH   2  32
TORSDOF 18
ENDMDL
MODEL 6
REMARK minimizedAffinity -5.49731922
REMARK minimizedRMSD -1
REMARK SMILES NC(=O)OC[C@H](O)[C@@H](O)[C@H](N)C(=O)N[C@H](C(=O)O)[C@H]1O[C@@H](n2cc(C(=O)O)c(=O)[nH]c2=O)[C@H](O)[C@@H]1O
REMARK SMILES IDX 14 1 12 2 13 3 15 5 19 6 21 7 33 8 20 9 35 10 22 11 23 12
REMARK SMILES IDX 24 13 28 14 31 15 29 16 30 17 32 18 25 20 26 21 27 22 34 24
REMARK SMILES IDX 36 26 16 28 17 29 18 30 10 32 8 33 6 34 5 35 4 36 2 37 3 38
REMARK SMILES IDX 1 39 7 42 9 44 11 46
REMARK H PARENT 14 4 30 19 27 23 34 25 36 27 18 31 1 40 1 41 7 43 9 45 11 47
REMARK H PARENT 11 48
REMARK Flexibility Score: inf
ROOT
ATOM      1  N   UNL     1      99.647 136.891  59.999  1.00  0.00    -0.339 N 
ATOM      2  C   UNL     1      99.369 136.674  58.667  1.00  0.00     0.240 C 
ATOM      3  O   UNL     1      99.558 137.531  57.807  1.00  0.00    -0.273 OA
ATOM      4  H   UNL     1      99.687 136.068  60.603  1.00  0.00     0.164 HD
ENDROOT
BRANCH   1   5
ATOM      5  C   UNL     1     100.401 138.071  60.432  1.00  0.00     0.224 C 
BRANCH   5   6
ATOM      6  C   UNL     1      99.496 139.024  61.225  1.00  0.00     0.186 C 
ATOM      7  C   UNL     1      97.186 139.255  61.418  1.00  0.00     0.255 C 
ATOM      8  C   UNL     1      97.604 138.197  62.452  1.00  0.00     0.196 C 
ATOM      9  O   UNL     1      98.280 139.303  60.481  1.00  0.00    -0.346 OA
ATOM     10  C   UNL     1      99.082 138.524  62.614  1.00  0.00     0.179 C 
BRANCH   7  11
ATOM     11  N   UNL     1      95.940 138.927  60.728  1.00  0.00    -0.270 N 
ATOM     12  C   UNL     1      95.927 138.094  59.620  1.00  0.00     0.115 C 
ATOM     13  C   UNL     1      94.796 137.713  59.007  1.00  0.00     0.141 C 
ATOM     14  C   UNL     1      93.518 138.208  59.557  1.00  0.00     0.268 C 
ATOM     15  C   UNL     1      94.764 139.431  61.268  1.00  0.00     0.330 C 
ATOM     16  O   UNL     1      92.423 137.834  59.156  1.00  0.00    -0.268 OA
ATOM     17  N   UNL     1      93.618 139.090  60.599  1.00  0.00    -0.273 N 
ATOM     18  O   UNL     1      94.700 140.135  62.272  1.00  0.00    -0.248 OA
ATOM     19  H   UNL     1      92.753 139.416  61.004  1.00  0.00     0.175 HD
BRANCH  13  20
ATOM     20  C   UNL     1      94.844 136.849  57.816  1.00  0.00     0.342 C 
ATOM     21  O   UNL     1      94.774 137.199  56.653  1.00  0.00    -0.246 OA
BRANCH  20  22
ATOM     22  O   UNL     1      94.981 135.545  58.127  1.00  0.00    -0.477 OA
ATOM     23  H   UNL     1      95.014 135.101  57.252  1.00  0.00     0.297 HD
ENDBRANCH  20  22
ENDBRANCH  13  20
ENDBRANCH   7  11
BRANCH   8  24
ATOM     24  O   UNL     1      96.928 138.286  63.702  1.00  0.00    -0.386 OA
ATOM     25  H   UNL     1      97.086 137.455  64.186  1.00  0.00     0.211 HD
ENDBRANCH   8  24
BRANCH  10  26
ATOM     26  O   UNL     1      99.224 139.595  63.563  1.00  0.00    -0.387 OA
ATOM     27  H   UNL     1      98.460 139.535  64.175  1.00  0.00     0.211 HD
ENDBRANCH  10  26
ENDBRANCH   5   6
BRANCH   5  28
ATOM     28  C   UNL     1     101.588 137.567  61.254  1.00  0.00     0.329 C 
ATOM     29  O   UNL     1     102.501 138.235  61.716  1.00  0.00    -0.250 OA
BRANCH  28  30
ATOM     30  O   UNL     1     101.574 136.231  61.447  1.00  0.00    -0.480 OA
ATOM     31  H   UNL     1     102.319 136.081  62.071  1.00  0.00     0.296 HD
ENDBRANCH  28  30
ENDBRANCH   5  28
ENDBRANCH   1   5
BRANCH   2  32
ATOM     32  C   UNL     1      98.943 135.231  58.317  1.00  0.00     0.173 C 
BRANCH  32  33
ATOM     33  C   UNL     1      98.674 135.085  56.798  1.00  0.00     0.172 C 
BRANCH  33  34
ATOM     34  C   UNL     1      99.716 134.217  56.065  1.00  0.00     0.183 C 
BRANCH  34  35
ATOM     35  C   UNL     1     101.113 134.849  56.150  1.00  0.00     0.269 C 
BRANCH  35  36
ATOM     36  O   UNL     1     101.921 134.136  57.110  1.00  0.00    -0.447 OA
BRANCH  36  37
ATOM     37  C   UNL     1     102.583 134.921  57.990  1.00  0.00     0.404 C 
ATOM     38  O   UNL     1     103.254 135.901  57.715  1.00  0.00    -0.225 OA
ATOM     39  N   UNL     1     102.394 134.465  59.246  1.00  0.00    -0.335 N 
ATOM     40  H   UNL     1     101.937 133.578  59.391  1.00  0.00     0.163 HD
ATOM     41  H   UNL     1     102.915 134.896  59.997  1.00  0.00     0.163 HD
ENDBRANCH  36  37
ENDBRANCH  35  36
ENDBRANCH  34  35
BRANCH  34  42
ATOM     42  O   UNL     1      99.361 134.117  54.675  1.00  0.00    -0.387 OA
ATOM     43  H   UNL     1     100.066 133.595  54.247  1.00  0.00     0.211 HD
ENDBRANCH  34  42
ENDBRANCH  33  34
BRANCH  33  44
ATOM     44  O   UNL     1      97.371 134.488  56.615  1.00  0.00    -0.388 OA
ATOM     45  H   UNL     1      97.535 133.542  56.836  1.00  0.00     0.211 HD
ENDBRANCH  33  44
ENDBRANCH  32  33
BRANCH  32  46
ATOM     46  N   UNL     1      97.775 134.891  59.165  1.00  0.00    -0.318 NA
ATOM     47  H   UNL     1      97.053 135.599  59.019  1.00  0.00     0.119 HD
ATOM     48  H   UNL     1      98.054 135.000  60.143  1.00  0.00     0.119 HD
ENDBRANCH  32  46
ENDBRANCH   2  32
TORSDOF 18
ENDMDL
MODEL 7
REMARK minimizedAffinity -5.47099876
REMARK minimizedRMSD -1
REMARK SMILES NC(=O)OC[C@H](O)[C@@H](O)[C@H](N)C(=O)N[C@H](C(=O)O)[C@H]1O[C@@H](n2cc(C(=O)O)c(=O)[nH]c2=O)[C@H](O)[C@@H]1O
REMARK SMILES IDX 14 1 12 2 13 3 15 5 19 6 21 7 33 8 20 9 35 10 22 11 23 12
REMARK SMILES IDX 24 13 28 14 31 15 29 16 30 17 32 18 25 20 26 21 27 22 34 24
REMARK SMILES IDX 36 26 16 28 17 29 18 30 10 32 8 33 6 34 5 35 4 36 2 37 3 38
REMARK SMILES IDX 1 39 7 42 9 44 11 46
REMARK H PARENT 14 4 30 19 27 23 34 25 36 27 18 31 1 40 1 41 7 43 9 45 11 47
REMARK H PARENT 11 48
REMARK Flexibility Score: inf
ROOT
ATOM      1  N   UNL     1      96.186 137.859  59.163  1.00  0.00    -0.339 N 
ATOM      2  C   UNL     1      96.953 136.718  59.239  1.00  0.00     0.240 C 
ATOM      3  O   UNL     1      96.649 135.767  59.955  1.00  0.00    -0.273 OA
ATOM      4  H   UNL     1      96.374 138.492  58.382  1.00  0.00     0.164 HD
ENDROOT
BRANCH   1   5
ATOM      5  C   UNL     1      94.844 137.911  59.751  1.00  0.00     0.224 C 
BRANCH   5   6
ATOM      6  C   UNL     1      94.824 138.860  60.956  1.00  0.00     0.186 C 
ATOM      7  C   UNL     1      96.379 139.392  62.608  1.00  0.00     0.255 C 
ATOM      8  C   UNL     1      96.681 140.314  61.416  1.00  0.00     0.196 C 
ATOM      9  O   UNL     1      95.609 138.310  62.048  1.00  0.00    -0.346 OA
ATOM     10  C   UNL     1      95.348 140.275  60.681  1.00  0.00     0.179 C 
BRANCH   7  11
ATOM     11  N   UNL     1      97.583 138.876  63.257  1.00  0.00    -0.270 N 
ATOM     12  C   UNL     1      98.703 138.522  62.522  1.00  0.00     0.115 C 
ATOM     13  C   UNL     1      99.849 138.114  63.089  1.00  0.00     0.141 C 
ATOM     14  C   UNL     1      99.900 138.055  64.564  1.00  0.00     0.268 C 
ATOM     15  C   UNL     1      97.580 138.818  64.645  1.00  0.00     0.330 C 
ATOM     16  O   UNL     1     100.924 137.813  65.193  1.00  0.00    -0.268 OA
ATOM     17  N   UNL     1      98.730 138.341  65.214  1.00  0.00    -0.273 N 
ATOM     18  O   UNL     1      96.639 139.159  65.358  1.00  0.00    -0.248 OA
ATOM     19  H   UNL     1      98.757 138.331  66.223  1.00  0.00     0.175 HD
BRANCH  13  20
ATOM     20  C   UNL     1     100.999 137.723  62.258  1.00  0.00     0.342 C 
ATOM     21  O   UNL     1     101.075 136.761  61.518  1.00  0.00    -0.246 OA
BRANCH  20  22
ATOM     22  O   UNL     1     102.040 138.569  62.383  1.00  0.00    -0.477 OA
ATOM     23  H   UNL     1     102.714 138.200  61.772  1.00  0.00     0.297 HD
ENDBRANCH  20  22
ENDBRANCH  13  20
ENDBRANCH   7  11
BRANCH   8  24
ATOM     24  O   UNL     1      97.023 141.651  61.768  1.00  0.00    -0.386 OA
ATOM     25  H   UNL     1      97.413 142.076  60.983  1.00  0.00     0.211 HD
ENDBRANCH   8  24
BRANCH  10  26
ATOM     26  O   UNL     1      94.456 141.233  61.274  1.00  0.00    -0.387 OA
ATOM     27  H   UNL     1      95.015 141.946  61.651  1.00  0.00     0.211 HD
ENDBRANCH  10  26
ENDBRANCH   5   6
BRANCH   5  28
ATOM     28  C   UNL     1      93.885 138.346  58.643  1.00  0.00     0.329 C 
ATOM     29  O   UNL     1      94.181 138.850  57.569  1.00  0.00    -0.250 OA
BRANCH  28  30
ATOM     30  O   UNL     1      92.587 138.136  58.947  1.00  0.00    -0.480 OA
ATOM     31  H   UNL     1      92.117 138.357  58.112  1.00  0.00     0.296 HD
ENDBRANCH  28  30
ENDBRANCH   5  28
ENDBRANCH   1   5
BRANCH   2  32
ATOM     32  C   UNL     1      98.139 136.662  58.249  1.00  0.00     0.173 C 
BRANCH  32  33
ATOM     33  C   UNL     1      98.201 135.289  57.536  1.00  0.00     0.172 C 
BRANCH  33  34
ATOM     34  C   UNL     1      99.161 135.260  56.331  1.00  0.00     0.183 C 
BRANCH  34  35
ATOM     35  C   UNL     1     100.430 134.459  56.660  1.00  0.00     0.269 C 
BRANCH  35  36
ATOM     36  O   UNL     1     101.385 135.303  57.337  1.00  0.00    -0.447 OA
BRANCH  36  37
ATOM     37  C   UNL     1     102.096 134.689  58.310  1.00  0.00     0.404 C 
ATOM     38  O   UNL     1     103.146 134.088  58.163  1.00  0.00    -0.225 OA
ATOM     39  N   UNL     1     101.473 134.839  59.499  1.00  0.00    -0.335 N 
ATOM     40  H   UNL     1     100.546 135.234  59.529  1.00  0.00     0.163 HD
ATOM     41  H   UNL     1     101.839 134.344  60.299  1.00  0.00     0.163 HD
ENDBRANCH  36  37
ENDBRANCH  35  36
ENDBRANCH  34  35
BRANCH  34  42
ATOM     42  O   UNL     1      99.561 136.603  56.005  1.00  0.00    -0.387 OA
ATOM     43  H   UNL     1     100.195 136.530  55.267  1.00  0.00     0.211 HD
ENDBRANCH  34  42
ENDBRANCH  33  34
BRANCH  33  44
ATOM     44  O   UNL     1      98.634 134.292  58.489  1.00  0.00    -0.388 OA
ATOM     45  H   UNL     1      99.599 134.472  58.565  1.00  0.00     0.211 HD
ENDBRANCH  33  44
ENDBRANCH  32  33
BRANCH  32  46
ATOM     46  N   UNL     1      99.369 136.997  59.008  1.00  0.00    -0.318 NA
ATOM     47  H   UNL     1      99.442 136.360  59.803  1.00  0.00     0.119 HD
ATOM     48  H   UNL     1      99.239 137.922  59.425  1.00  0.00     0.119 HD
ENDBRANCH  32  46
ENDBRANCH   2  32
TORSDOF 18
ENDMDL
MODEL 8
REMARK minimizedAffinity -5.46567154
REMARK minimizedRMSD -1
REMARK SMILES NC(=O)OC[C@H](O)[C@@H](O)[C@H](N)C(=O)N[C@H](C(=O)O)[C@H]1O[C@@H](n2cc(C(=O)O)c(=O)[nH]c2=O)[C@H](O)[C@@H]1O
REMARK SMILES IDX 14 1 12 2 13 3 15 5 19 6 21 7 33 8 20 9 35 10 22 11 23 12
REMARK SMILES IDX 24 13 28 14 31 15 29 16 30 17 32 18 25 20 26 21 27 22 34 24
REMARK SMILES IDX 36 26 16 28 17 29 18 30 10 32 8 33 6 34 5 35 4 36 2 37 3 38
REMARK SMILES IDX 1 39 7 42 9 44 11 46
REMARK H PARENT 14 4 30 19 27 23 34 25 36 27 18 31 1 40 1 41 7 43 9 45 11 47
REMARK H PARENT 11 48
REMARK Flexibility Score: inf
ROOT
ATOM      1  N   UNL     1      98.187 138.952  60.361  1.00  0.00    -0.339 N 
ATOM      2  C   UNL     1      98.981 139.818  61.081  1.00  0.00     0.240 C 
ATOM      3  O   UNL     1      98.586 140.923  61.447  1.00  0.00    -0.273 OA
ATOM      4  H   UNL     1      98.499 137.980  60.302  1.00  0.00     0.164 HD
ENDROOT
BRANCH   1   5
ATOM      5  C   UNL     1      96.753 139.202  60.193  1.00  0.00     0.224 C 
BRANCH   5   6
ATOM      6  C   UNL     1      96.268 138.649  58.846  1.00  0.00     0.186 C 
ATOM      7  C   UNL     1      96.924 136.852  57.518  1.00  0.00     0.255 C 
ATOM      8  C   UNL     1      95.912 136.295  58.532  1.00  0.00     0.196 C 
ATOM      9  O   UNL     1      97.380 138.089  58.098  1.00  0.00    -0.346 OA
ATOM     10  C   UNL     1      95.184 137.569  58.937  1.00  0.00     0.179 C 
BRANCH   7  11
ATOM     11  N   UNL     1      98.055 135.956  57.279  1.00  0.00    -0.270 N 
ATOM     12  C   UNL     1      99.182 135.989  58.084  1.00  0.00     0.115 C 
ATOM     13  C   UNL     1     100.206 135.133  57.940  1.00  0.00     0.141 C 
ATOM     14  C   UNL     1     100.103 134.114  56.875  1.00  0.00     0.268 C 
ATOM     15  C   UNL     1      97.922 135.027  56.255  1.00  0.00     0.330 C 
ATOM     16  O   UNL     1     100.917 133.210  56.728  1.00  0.00    -0.268 OA
ATOM     17  N   UNL     1      98.998 134.199  56.072  1.00  0.00    -0.273 N 
ATOM     18  O   UNL     1      96.933 134.914  55.536  1.00  0.00    -0.248 OA
ATOM     19  H   UNL     1      98.900 133.492  55.358  1.00  0.00     0.175 HD
BRANCH  13  20
ATOM     20  C   UNL     1     101.393 135.232  58.805  1.00  0.00     0.342 C 
ATOM     21  O   UNL     1     102.557 135.125  58.468  1.00  0.00    -0.246 OA
BRANCH  20  22
ATOM     22  O   UNL     1     101.077 135.468  60.093  1.00  0.00    -0.477 OA
ATOM     23  H   UNL     1     101.949 135.525  60.540  1.00  0.00     0.297 HD
ENDBRANCH  20  22
ENDBRANCH  13  20
ENDBRANCH   7  11
BRANCH   8  24
ATOM     24  O   UNL     1      94.999 135.340  57.999  1.00  0.00    -0.386 OA
ATOM     25  H   UNL     1      94.570 134.888  58.748  1.00  0.00     0.211 HD
ENDBRANCH   8  24
BRANCH  10  26
ATOM     26  O   UNL     1      94.155 137.849  57.973  1.00  0.00    -0.387 OA
ATOM     27  H   UNL     1      93.878 136.987  57.594  1.00  0.00     0.211 HD
ENDBRANCH  10  26
ENDBRANCH   5   6
BRANCH   5  28
ATOM     28  C   UNL     1      96.043 138.556  61.384  1.00  0.00     0.329 C 
ATOM     29  O   UNL     1      95.085 139.001  62.000  1.00  0.00    -0.250 OA
BRANCH  28  30
ATOM     30  O   UNL     1      96.586 137.377  61.753  1.00  0.00    -0.480 OA
ATOM     31  H   UNL     1      95.965 137.044  62.439  1.00  0.00     0.296 HD
ENDBRANCH  28  30
ENDBRANCH   5  28
ENDBRANCH   1   5
BRANCH   2  32
ATOM     32  C   UNL     1     100.346 139.241  61.519  1.00  0.00     0.173 C 
BRANCH  32  33
ATOM     33  C   UNL     1     100.161 138.129  62.582  1.00  0.00     0.172 C 
BRANCH  33  34
ATOM     34  C   UNL     1      99.416 138.599  63.847  1.00  0.00     0.183 C 
BRANCH  34  35
ATOM     35  C   UNL     1     100.329 138.522  65.080  1.00  0.00     0.269 C 
BRANCH  35  36
ATOM     36  O   UNL     1     101.640 138.057  64.696  1.00  0.00    -0.447 OA
BRANCH  36  37
ATOM     37  C   UNL     1     102.658 138.875  65.048  1.00  0.00     0.404 C 
ATOM     38  O   UNL     1     102.916 139.257  66.176  1.00  0.00    -0.225 OA
ATOM     39  N   UNL     1     103.372 139.218  63.955  1.00  0.00    -0.335 N 
ATOM     40  H   UNL     1     103.029 138.974  63.039  1.00  0.00     0.163 HD
ATOM     41  H   UNL     1     104.103 139.908  64.055  1.00  0.00     0.163 HD
ENDBRANCH  36  37
ENDBRANCH  35  36
ENDBRANCH  34  35
BRANCH  34  42
ATOM     42  O   UNL     1      98.286 137.741  64.082  1.00  0.00    -0.387 OA
ATOM     43  H   UNL     1      97.872 138.051  64.909  1.00  0.00     0.211 HD
ENDBRANCH  34  42
ENDBRANCH  33  34
BRANCH  33  44
ATOM     44  O   UNL     1      99.414 137.043  61.989  1.00  0.00    -0.388 OA
ATOM     45  H   UNL     1      98.495 137.397  61.973  1.00  0.00     0.211 HD
ENDBRANCH  33  44
ENDBRANCH  32  33
BRANCH  32  46
ATOM     46  N   UNL     1     101.182 140.375  61.981  1.00  0.00    -0.318 NA
ATOM     47  H   UNL     1     100.673 140.876  62.712  1.00  0.00     0.119 HD
ATOM     48  H   UNL     1     101.259 141.043  61.211  1.00  0.00     0.119 HD
ENDBRANCH  32  46
ENDBRANCH   2  32
TORSDOF 18
ENDMDL
MODEL 9
REMARK minimizedAffinity -5.45472956
REMARK minimizedRMSD -1
REMARK SMILES NC(=O)OC[C@H](O)[C@@H](O)[C@H](N)C(=O)N[C@H](C(=O)O)[C@H]1O[C@@H](n2cc(C(=O)O)c(=O)[nH]c2=O)[C@H](O)[C@@H]1O
REMARK SMILES IDX 14 1 12 2 13 3 15 5 19 6 21 7 33 8 20 9 35 10 22 11 23 12
REMARK SMILES IDX 24 13 28 14 31 15 29 16 30 17 32 18 25 20 26 21 27 22 34 24
REMARK SMILES IDX 36 26 16 28 17 29 18 30 10 32 8 33 6 34 5 35 4 36 2 37 3 38
REMARK SMILES IDX 1 39 7 42 9 44 11 46
REMARK H PARENT 14 4 30 19 27 23 34 25 36 27 18 31 1 40 1 41 7 43 9 45 11 47
REMARK H PARENT 11 48
REMARK Flexibility Score: inf
ROOT
ATOM      1  N   UNL     1      96.775 139.315  59.544  1.00  0.00    -0.339 N 
ATOM      2  C   UNL     1      97.935 139.975  59.882  1.00  0.00     0.240 C 
ATOM      3  O   UNL     1      98.826 140.202  59.067  1.00  0.00    -0.273 OA
ATOM      4  H   UNL     1      95.998 139.375  60.206  1.00  0.00     0.164 HD
ENDROOT
BRANCH   1   5
ATOM      5  C   UNL     1      96.436 139.050  58.143  1.00  0.00     0.224 C 
BRANCH   5   6
ATOM      6  C   UNL     1      96.371 137.539  57.884  1.00  0.00     0.186 C 
ATOM      7  C   UNL     1      97.901 135.800  58.135  1.00  0.00     0.255 C 
ATOM      8  C   UNL     1      97.211 135.971  59.498  1.00  0.00     0.196 C 
ATOM      9  O   UNL     1      97.666 137.044  57.447  1.00  0.00    -0.346 OA
ATOM     10  C   UNL     1      95.935 136.689  59.084  1.00  0.00     0.179 C 
BRANCH   7  11
ATOM     11  N   UNL     1      99.337 135.543  58.243  1.00  0.00    -0.270 N 
ATOM     12  C   UNL     1     100.155 136.344  59.023  1.00  0.00     0.115 C 
ATOM     13  C   UNL     1     101.462 136.095  59.203  1.00  0.00     0.141 C 
ATOM     14  C   UNL     1     102.030 134.904  58.538  1.00  0.00     0.268 C 
ATOM     15  C   UNL     1      99.831 134.424  57.584  1.00  0.00     0.330 C 
ATOM     16  O   UNL     1     103.176 134.512  58.725  1.00  0.00    -0.268 OA
ATOM     17  N   UNL     1     101.177 134.212  57.721  1.00  0.00    -0.273 N 
ATOM     18  O   UNL     1      99.154 133.649  56.916  1.00  0.00    -0.248 OA
ATOM     19  H   UNL     1     101.545 133.381  57.281  1.00  0.00     0.175 HD
BRANCH  13  20
ATOM     20  C   UNL     1     102.291 136.996  60.020  1.00  0.00     0.342 C 
ATOM     21  O   UNL     1     102.075 137.358  61.160  1.00  0.00    -0.246 OA
BRANCH  20  22
ATOM     22  O   UNL     1     103.389 137.424  59.366  1.00  0.00    -0.477 OA
ATOM     23  H   UNL     1     103.845 137.991  60.025  1.00  0.00     0.297 HD
ENDBRANCH  20  22
ENDBRANCH  13  20
ENDBRANCH   7  11
BRANCH   8  24
ATOM     24  O   UNL     1      96.908 134.752  60.170  1.00  0.00    -0.386 OA
ATOM     25  H   UNL     1      96.697 134.966  61.096  1.00  0.00     0.211 HD
ENDBRANCH   8  24
BRANCH  10  26
ATOM     26  O   UNL     1      94.969 135.718  58.649  1.00  0.00    -0.387 OA
ATOM     27  H   UNL     1      95.167 134.886  59.129  1.00  0.00     0.211 HD
ENDBRANCH  10  26
ENDBRANCH   5   6
BRANCH   5  28
ATOM     28  C   UNL     1      95.106 139.752  57.864  1.00  0.00     0.329 C 
ATOM     29  O   UNL     1      94.296 140.149  58.688  1.00  0.00    -0.250 OA
BRANCH  28  30
ATOM     30  O   UNL     1      94.852 139.910  56.548  1.00  0.00    -0.480 OA
ATOM     31  H   UNL     1      94.039 140.462  56.535  1.00  0.00     0.296 HD
ENDBRANCH  28  30
ENDBRANCH   5  28
ENDBRANCH   1   5
BRANCH   2  32
ATOM     32  C   UNL     1      97.968 140.540  61.321  1.00  0.00     0.173 C 
BRANCH  32  33
ATOM     33  C   UNL     1      99.067 139.845  62.163  1.00  0.00     0.172 C 
BRANCH  33  34
ATOM     34  C   UNL     1      98.615 138.512  62.792  1.00  0.00     0.183 C 
BRANCH  34  35
ATOM     35  C   UNL     1      99.116 138.392  64.239  1.00  0.00     0.269 C 
BRANCH  35  36
ATOM     36  O   UNL     1     100.321 139.166  64.412  1.00  0.00    -0.447 OA
BRANCH  36  37
ATOM     37  C   UNL     1     101.461 138.441  64.464  1.00  0.00     0.404 C 
ATOM     38  O   UNL     1     101.658 137.462  65.165  1.00  0.00    -0.225 OA
ATOM     39  N   UNL     1     102.374 138.954  63.614  1.00  0.00    -0.335 N 
ATOM     40  H   UNL     1     102.194 139.838  63.163  1.00  0.00     0.163 HD
ATOM     41  H   UNL     1     103.309 138.573  63.624  1.00  0.00     0.163 HD
ENDBRANCH  36  37
ENDBRANCH  35  36
ENDBRANCH  34  35
BRANCH  34  42
ATOM     42  O   UNL     1      99.169 137.417  62.042  1.00  0.00    -0.387 OA
ATOM     43  H   UNL     1      98.890 136.602  62.498  1.00  0.00     0.211 HD
ENDBRANCH  34  42
ENDBRANCH  33  34
BRANCH  33  44
ATOM     44  O   UNL     1     100.206 139.586  61.313  1.00  0.00    -0.388 OA
ATOM     45  H   UNL     1      99.907 138.813  60.781  1.00  0.00     0.211 HD
ENDBRANCH  33  44
ENDBRANCH  32  33
BRANCH  32  46
ATOM     46  N   UNL     1      96.604 140.400  61.886  1.00  0.00    -0.318 NA
ATOM     47  H   UNL     1      96.324 139.420  61.816  1.00  0.00     0.119 HD
ATOM     48  H   UNL     1      95.957 140.902  61.275  1.00  0.00     0.119 HD
ENDBRANCH  32  46
ENDBRANCH   2  32
TORSDOF 18
ENDMDL
