MODEL 1
REMARK VINA RESULT:    -7.822      0.000      0.000
REMARK INTER + INTRA:         -18.350
REMARK INTER:                 -14.452
REMARK INTRA:                  -3.897
REMARK UNBOUND:                -3.897
REMARK SMILES NC(=O)OC[C@H](O)[C@@H](O)[C@H](N)C(=O)N[C@H](C(=O)O)[C@H]1O[C@@H](n2cc(C(=O)O)c(=O)[nH]c2=O)[C@H](O)[C@@H]1O
REMARK SMILES IDX 14 1 12 2 13 3 15 5 19 6 21 7 33 8 20 9 35 10 22 11 23 12
REMARK SMILES IDX 24 13 28 14 31 15 29 16 30 17 32 18 25 20 26 21 27 22 34 24
REMARK SMILES IDX 36 26 16 28 17 29 18 30 10 32 8 33 6 34 5 35 4 36 2 37 3 38
REMARK SMILES IDX 1 39 7 42 9 44 11 46
REMARK H PARENT 14 4 30 19 27 23 34 25 36 27 18 31 1 40 1 41 7 43 9 45 11 47
REMARK H PARENT 11 48
REMARK Flexibility Score: inf
ROOT
ATOM      1  N   UNL     1      -4.828   2.980  -3.107  1.00  0.00    -0.339 N 
ATOM      2  C   UNL     1      -3.626   3.599  -3.370  1.00  0.00     0.240 C 
ATOM      3  O   UNL     1      -3.244   3.839  -4.513  1.00  0.00    -0.273 OA
ATOM      4  H   UNL     1      -5.174   3.031  -2.146  1.00  0.00     0.164 HD
ENDROOT
BRANCH   1   5
ATOM      5  C   UNL     1      -5.824   2.782  -4.163  1.00  0.00     0.224 C 
BRANCH   5   6
ATOM      6  C   UNL     1      -6.006   1.286  -4.454  1.00  0.00     0.186 C 
ATOM      7  C   UNL     1      -5.018  -0.646  -3.607  1.00  0.00     0.255 C 
ATOM      8  C   UNL     1      -6.186  -0.308  -2.667  1.00  0.00     0.196 C 
ATOM      9  O   UNL     1      -4.742   0.584  -4.305  1.00  0.00    -0.346 OA
ATOM     10  C   UNL     1      -7.036   0.570  -3.573  1.00  0.00     0.179 C 
BRANCH   7  11
ATOM     11  N   UNL     1      -3.824  -1.108  -2.901  1.00  0.00    -0.270 N 
ATOM     12  C   UNL     1      -3.122  -0.271  -2.048  1.00  0.00     0.115 C 
ATOM     13  C   UNL     1      -2.066  -0.681  -1.328  1.00  0.00     0.141 C 
ATOM     14  C   UNL     1      -1.655  -2.094  -1.459  1.00  0.00     0.268 C 
ATOM     15  C   UNL     1      -3.462  -2.438  -3.070  1.00  0.00     0.330 C 
ATOM     16  O   UNL     1      -0.786  -2.608  -0.766  1.00  0.00    -0.268 OA
ATOM     17  N   UNL     1      -2.346  -2.833  -2.381  1.00  0.00    -0.273 N 
ATOM     18  O   UNL     1      -4.065  -3.244  -3.773  1.00  0.00    -0.248 OA
ATOM     19  H   UNL     1      -2.094  -3.808  -2.463  1.00  0.00     0.175 HD
BRANCH  13  20
ATOM     20  C   UNL     1      -1.341   0.259  -0.459  1.00  0.00     0.342 C 
ATOM     21  O   UNL     1      -0.168   0.573  -0.536  1.00  0.00    -0.246 OA
BRANCH  20  22
ATOM     22  O   UNL     1      -2.125   0.789   0.501  1.00  0.00    -0.477 OA
ATOM     23  H   UNL     1      -1.845   0.317   1.315  1.00  0.00     0.297 HD
ENDBRANCH  20  22
ENDBRANCH  13  20
ENDBRANCH   7  11
BRANCH   8  24
ATOM     24  O   UNL     1      -6.931  -1.435  -2.214  1.00  0.00    -0.386 OA
ATOM     25  H   UNL     1      -6.408  -2.234  -2.404  1.00  0.00     0.211 HD
ENDBRANCH   8  24
BRANCH  10  26
ATOM     26  O   UNL     1      -7.864  -0.267  -4.398  1.00  0.00    -0.387 OA
ATOM     27  H   UNL     1      -8.736  -0.331  -3.954  1.00  0.00     0.211 HD
ENDBRANCH  10  26
ENDBRANCH   5   6
BRANCH   5  28
ATOM     28  C   UNL     1      -7.116   3.450  -3.691  1.00  0.00     0.329 C 
ATOM     29  O   UNL     1      -7.385   3.814  -2.555  1.00  0.00    -0.250 OA
BRANCH  28  30
ATOM     30  O   UNL     1      -8.021   3.619  -4.677  1.00  0.00    -0.480 OA
ATOM     31  H   UNL     1      -8.767   3.037  -4.408  1.00  0.00     0.296 HD
ENDBRANCH  28  30
ENDBRANCH   5  28
ENDBRANCH   1   5
BRANCH   2  32
ATOM     32  C   UNL     1      -2.865   4.102  -2.122  1.00  0.00     0.173 C 
BRANCH  32  33
ATOM     33  C   UNL     1      -1.333   4.055  -2.351  1.00  0.00     0.172 C 
BRANCH  33  34
ATOM     34  C   UNL     1      -0.509   4.483  -1.121  1.00  0.00     0.183 C 
BRANCH  34  35
ATOM     35  C   UNL     1       0.986   4.555  -1.461  1.00  0.00     0.269 C 
BRANCH  35  36
ATOM     36  O   UNL     1       1.586   3.249  -1.337  1.00  0.00    -0.447 OA
BRANCH  36  37
ATOM     37  C   UNL     1       2.496   3.132  -0.344  1.00  0.00     0.404 C 
ATOM     38  O   UNL     1       3.534   3.762  -0.243  1.00  0.00    -0.225 OA
ATOM     39  N   UNL     1       2.089   2.203   0.547  1.00  0.00    -0.335 N 
ATOM     40  H   UNL     1       1.287   1.629   0.337  1.00  0.00     0.163 HD
ATOM     41  H   UNL     1       2.721   1.939   1.289  1.00  0.00     0.163 HD
ENDBRANCH  36  37
ENDBRANCH  35  36
ENDBRANCH  34  35
BRANCH  34  42
ATOM     42  O   UNL     1      -0.676   3.512  -0.073  1.00  0.00    -0.387 OA
ATOM     43  H   UNL     1      -1.327   2.863  -0.399  1.00  0.00     0.211 HD
ENDBRANCH  34  42
ENDBRANCH  33  34
BRANCH  33  44
ATOM     44  O   UNL     1      -0.960   2.704  -2.704  1.00  0.00    -0.388 OA
ATOM     45  H   UNL     1      -0.031   2.811  -3.013  1.00  0.00     0.211 HD
ENDBRANCH  33  44
ENDBRANCH  32  33
BRANCH  32  46
ATOM     46  N   UNL     1      -3.320   3.293  -0.965  1.00  0.00    -0.318 NA
ATOM     47  H   UNL     1      -4.191   2.826  -1.221  1.00  0.00     0.119 HD
ATOM     48  H   UNL     1      -3.579   3.937  -0.215  1.00  0.00     0.119 HD
ENDBRANCH  32  46
ENDBRANCH   2  32
TORSDOF 18
ENDMDL
MODEL 2
REMARK VINA RESULT:    -7.730      2.556      5.111
REMARK INTER + INTRA:         -18.179
REMARK INTER:                 -14.574
REMARK INTRA:                  -3.605
REMARK UNBOUND:                -3.897
REMARK SMILES NC(=O)OC[C@H](O)[C@@H](O)[C@H](N)C(=O)N[C@H](C(=O)O)[C@H]1O[C@@H](n2cc(C(=O)O)c(=O)[nH]c2=O)[C@H](O)[C@@H]1O
REMARK SMILES IDX 14 1 12 2 13 3 15 5 19 6 21 7 33 8 20 9 35 10 22 11 23 12
REMARK SMILES IDX 24 13 28 14 31 15 29 16 30 17 32 18 25 20 26 21 27 22 34 24
REMARK SMILES IDX 36 26 16 28 17 29 18 30 10 32 8 33 6 34 5 35 4 36 2 37 3 38
REMARK SMILES IDX 1 39 7 42 9 44 11 46
REMARK H PARENT 14 4 30 19 27 23 34 25 36 27 18 31 1 40 1 41 7 43 9 45 11 47
REMARK H PARENT 11 48
REMARK Flexibility Score: inf
ROOT
ATOM      1  N   UNL     1      -6.365   2.530  -3.600  1.00  0.00    -0.339 N 
ATOM      2  C   UNL     1      -5.551   3.610  -3.338  1.00  0.00     0.240 C 
ATOM      3  O   UNL     1      -4.631   3.939  -4.084  1.00  0.00    -0.273 OA
ATOM      4  H   UNL     1      -7.236   2.468  -3.069  1.00  0.00     0.164 HD
ENDROOT
BRANCH   1   5
ATOM      5  C   UNL     1      -6.328   1.854  -4.900  1.00  0.00     0.224 C 
BRANCH   5   6
ATOM      6  C   UNL     1      -5.824   0.413  -4.739  1.00  0.00     0.186 C 
ATOM      7  C   UNL     1      -4.299  -0.603  -3.301  1.00  0.00     0.255 C 
ATOM      8  C   UNL     1      -5.650  -0.601  -2.569  1.00  0.00     0.196 C 
ATOM      9  O   UNL     1      -4.433   0.407  -4.319  1.00  0.00    -0.346 OA
ATOM     10  C   UNL     1      -6.609  -0.445  -3.740  1.00  0.00     0.179 C 
BRANCH   7  11
ATOM     11  N   UNL     1      -3.168  -0.296  -2.426  1.00  0.00    -0.270 N 
ATOM     12  C   UNL     1      -2.802   1.013  -2.155  1.00  0.00     0.115 C 
ATOM     13  C   UNL     1      -1.817   1.333  -1.301  1.00  0.00     0.141 C 
ATOM     14  C   UNL     1      -1.110   0.225  -0.625  1.00  0.00     0.268 C 
ATOM     15  C   UNL     1      -2.519  -1.369  -1.829  1.00  0.00     0.330 C 
ATOM     16  O   UNL     1      -0.280   0.398   0.259  1.00  0.00    -0.268 OA
ATOM     17  N   UNL     1      -1.474  -1.037  -1.008  1.00  0.00    -0.273 N 
ATOM     18  O   UNL     1      -2.820  -2.548  -1.990  1.00  0.00    -0.248 OA
ATOM     19  H   UNL     1      -1.018  -1.804  -0.535  1.00  0.00     0.175 HD
BRANCH  13  20
ATOM     20  C   UNL     1      -1.452   2.740  -1.071  1.00  0.00     0.342 C 
ATOM     21  O   UNL     1      -1.450   3.640  -1.889  1.00  0.00    -0.246 OA
BRANCH  20  22
ATOM     22  O   UNL     1      -1.092   2.980   0.205  1.00  0.00    -0.477 OA
ATOM     23  H   UNL     1      -1.932   2.886   0.704  1.00  0.00     0.297 HD
ENDBRANCH  20  22
ENDBRANCH  13  20
ENDBRANCH   7  11
BRANCH   8  24
ATOM     24  O   UNL     1      -5.935  -1.791  -1.839  1.00  0.00    -0.386 OA
ATOM     25  H   UNL     1      -5.568  -2.542  -2.339  1.00  0.00     0.211 HD
ENDBRANCH   8  24
BRANCH  10  26
ATOM     26  O   UNL     1      -6.857  -1.737  -4.319  1.00  0.00    -0.387 OA
ATOM     27  H   UNL     1      -7.080  -1.588  -5.262  1.00  0.00     0.211 HD
ENDBRANCH  10  26
ENDBRANCH   5   6
BRANCH   5  28
ATOM     28  C   UNL     1      -7.742   1.920  -5.479  1.00  0.00     0.329 C 
ATOM     29  O   UNL     1      -8.263   1.122  -6.243  1.00  0.00    -0.250 OA
BRANCH  28  30
ATOM     30  O   UNL     1      -8.433   3.007  -5.075  1.00  0.00    -0.480 OA
ATOM     31  H   UNL     1      -8.883   3.311  -5.895  1.00  0.00     0.296 HD
ENDBRANCH  28  30
ENDBRANCH   5  28
ENDBRANCH   1   5
BRANCH   2  32
ATOM     32  C   UNL     1      -5.972   4.462  -2.119  1.00  0.00     0.173 C 
BRANCH  32  33
ATOM     33  C   UNL     1      -7.513   4.604  -2.047  1.00  0.00     0.172 C 
BRANCH  33  34
ATOM     34  C   UNL     1      -8.010   5.321  -0.776  1.00  0.00     0.183 C 
BRANCH  34  35
ATOM     35  C   UNL     1      -8.484   6.745  -1.101  1.00  0.00     0.269 C 
BRANCH  35  36
ATOM     36  O   UNL     1      -7.393   7.677  -0.947  1.00  0.00    -0.447 OA
BRANCH  36  37
ATOM     37  C   UNL     1      -7.248   8.555  -1.965  1.00  0.00     0.404 C 
ATOM     38  O   UNL     1      -7.006   8.276  -3.126  1.00  0.00    -0.225 OA
ATOM     39  N   UNL     1      -7.415   9.816  -1.512  1.00  0.00    -0.335 N 
ATOM     40  H   UNL     1      -7.483   9.985  -0.520  1.00  0.00     0.163 HD
ATOM     41  H   UNL     1      -7.233  10.582  -2.145  1.00  0.00     0.163 HD
ENDBRANCH  36  37
ENDBRANCH  35  36
ENDBRANCH  34  35
BRANCH  34  42
ATOM     42  O   UNL     1      -6.931   5.421   0.170  1.00  0.00    -0.387 OA
ATOM     43  H   UNL     1      -6.375   6.165  -0.125  1.00  0.00     0.211 HD
ENDBRANCH  34  42
ENDBRANCH  33  34
BRANCH  33  44
ATOM     44  O   UNL     1      -7.962   5.352  -3.199  1.00  0.00    -0.388 OA
ATOM     45  H   UNL     1      -7.152   5.843  -3.466  1.00  0.00     0.211 HD
ENDBRANCH  33  44
ENDBRANCH  32  33
BRANCH  32  46
ATOM     46  N   UNL     1      -5.257   5.759  -2.214  1.00  0.00    -0.318 NA
ATOM     47  H   UNL     1      -4.359   5.600  -2.674  1.00  0.00     0.119 HD
ATOM     48  H   UNL     1      -5.017   6.055  -1.265  1.00  0.00     0.119 HD
ENDBRANCH  32  46
ENDBRANCH   2  32
TORSDOF 18
ENDMDL
MODEL 3
REMARK VINA RESULT:    -7.723      4.010      8.591
REMARK INTER + INTRA:         -18.166
REMARK INTER:                 -15.630
REMARK INTRA:                  -2.536
REMARK UNBOUND:                -3.897
REMARK SMILES NC(=O)OC[C@H](O)[C@@H](O)[C@H](N)C(=O)N[C@H](C(=O)O)[C@H]1O[C@@H](n2cc(C(=O)O)c(=O)[nH]c2=O)[C@H](O)[C@@H]1O
REMARK SMILES IDX 14 1 12 2 13 3 15 5 19 6 21 7 33 8 20 9 35 10 22 11 23 12
REMARK SMILES IDX 24 13 28 14 31 15 29 16 30 17 32 18 25 20 26 21 27 22 34 24
REMARK SMILES IDX 36 26 16 28 17 29 18 30 10 32 8 33 6 34 5 35 4 36 2 37 3 38
REMARK SMILES IDX 1 39 7 42 9 44 11 46
REMARK H PARENT 14 4 30 19 27 23 34 25 36 27 18 31 1 40 1 41 7 43 9 45 11 47
REMARK H PARENT 11 48
REMARK Flexibility Score: inf
ROOT
ATOM      1  N   UNL     1      -6.936   2.198  -2.727  1.00  0.00    -0.339 N 
ATOM      2  C   UNL     1      -7.564   1.118  -3.307  1.00  0.00     0.240 C 
ATOM      3  O   UNL     1      -8.461   1.245  -4.138  1.00  0.00    -0.273 OA
ATOM      4  H   UNL     1      -6.058   2.013  -2.236  1.00  0.00     0.164 HD
ENDROOT
BRANCH   1   5
ATOM      5  C   UNL     1      -7.140   3.556  -3.237  1.00  0.00     0.224 C 
BRANCH   5   6
ATOM      6  C   UNL     1      -6.956   4.584  -2.112  1.00  0.00     0.186 C 
ATOM      7  C   UNL     1      -7.028   6.911  -2.036  1.00  0.00     0.255 C 
ATOM      8  C   UNL     1      -8.476   6.427  -1.861  1.00  0.00     0.196 C 
ATOM      9  O   UNL     1      -6.337   5.793  -2.627  1.00  0.00    -0.346 OA
ATOM     10  C   UNL     1      -8.244   4.998  -1.390  1.00  0.00     0.179 C 
BRANCH   7  11
ATOM     11  N   UNL     1      -6.912   8.090  -2.893  1.00  0.00    -0.270 N 
ATOM     12  C   UNL     1      -6.613   7.974  -4.241  1.00  0.00     0.115 C 
ATOM     13  C   UNL     1      -6.571   9.027  -5.072  1.00  0.00     0.141 C 
ATOM     14  C   UNL     1      -6.869  10.359  -4.506  1.00  0.00     0.268 C 
ATOM     15  C   UNL     1      -7.180   9.324  -2.314  1.00  0.00     0.330 C 
ATOM     16  O   UNL     1      -6.977  11.370  -5.189  1.00  0.00    -0.268 OA
ATOM     17  N   UNL     1      -7.074  10.400  -3.154  1.00  0.00    -0.273 N 
ATOM     18  O   UNL     1      -7.495   9.492  -1.139  1.00  0.00    -0.248 OA
ATOM     19  H   UNL     1      -7.305  11.300  -2.757  1.00  0.00     0.175 HD
BRANCH  13  20
ATOM     20  C   UNL     1      -6.219   8.849  -6.490  1.00  0.00     0.342 C 
ATOM     21  O   UNL     1      -6.246   7.814  -7.128  1.00  0.00    -0.246 OA
BRANCH  20  22
ATOM     22  O   UNL     1      -5.837  10.000  -7.078  1.00  0.00    -0.477 OA
ATOM     23  H   UNL     1      -6.503  10.651  -6.768  1.00  0.00     0.297 HD
ENDBRANCH  20  22
ENDBRANCH  13  20
ENDBRANCH   7  11
BRANCH   8  24
ATOM     24  O   UNL     1      -9.236   7.157  -0.902  1.00  0.00    -0.386 OA
ATOM     25  H   UNL     1      -8.767   7.107  -0.050  1.00  0.00     0.211 HD
ENDBRANCH   8  24
BRANCH  10  26
ATOM     26  O   UNL     1      -8.011   5.003   0.028  1.00  0.00    -0.387 OA
ATOM     27  H   UNL     1      -8.230   4.105   0.355  1.00  0.00     0.211 HD
ENDBRANCH  10  26
ENDBRANCH   5   6
BRANCH   5  28
ATOM     28  C   UNL     1      -6.150   3.757  -4.385  1.00  0.00     0.329 C 
ATOM     29  O   UNL     1      -6.416   3.974  -5.557  1.00  0.00    -0.250 OA
BRANCH  28  30
ATOM     30  O   UNL     1      -4.860   3.662  -3.999  1.00  0.00    -0.480 OA
ATOM     31  H   UNL     1      -4.720   2.693  -3.904  1.00  0.00     0.296 HD
ENDBRANCH  28  30
ENDBRANCH   5  28
ENDBRANCH   1   5
BRANCH   2  32
ATOM     32  C   UNL     1      -6.958  -0.258  -2.949  1.00  0.00     0.173 C 
BRANCH  32  33
ATOM     33  C   UNL     1      -5.916  -0.697  -4.008  1.00  0.00     0.172 C 
BRANCH  33  34
ATOM     34  C   UNL     1      -4.860  -1.682  -3.467  1.00  0.00     0.183 C 
BRANCH  34  35
ATOM     35  C   UNL     1      -3.488  -1.002  -3.346  1.00  0.00     0.269 C 
BRANCH  35  36
ATOM     36  O   UNL     1      -3.233  -0.646  -1.971  1.00  0.00    -0.447 OA
BRANCH  36  37
ATOM     37  C   UNL     1      -3.327   0.675  -1.699  1.00  0.00     0.404 C 
ATOM     38  O   UNL     1      -3.696   1.543  -2.471  1.00  0.00    -0.225 OA
ATOM     39  N   UNL     1      -2.953   0.911  -0.424  1.00  0.00    -0.335 N 
ATOM     40  H   UNL     1      -2.536   0.170   0.118  1.00  0.00     0.163 HD
ATOM     41  H   UNL     1      -2.876   1.869  -0.114  1.00  0.00     0.163 HD
ENDBRANCH  36  37
ENDBRANCH  35  36
ENDBRANCH  34  35
BRANCH  34  42
ATOM     42  O   UNL     1      -4.725  -2.786  -4.379  1.00  0.00    -0.387 OA
ATOM     43  H   UNL     1      -3.845  -2.699  -4.789  1.00  0.00     0.211 HD
ENDBRANCH  34  42
ENDBRANCH  33  34
BRANCH  33  44
ATOM     44  O   UNL     1      -6.611  -1.330  -5.106  1.00  0.00    -0.388 OA
ATOM     45  H   UNL     1      -7.547  -1.323  -4.801  1.00  0.00     0.211 HD
ENDBRANCH  33  44
ENDBRANCH  32  33
BRANCH  32  46
ATOM     46  N   UNL     1      -8.082  -1.212  -2.788  1.00  0.00    -0.318 NA
ATOM     47  H   UNL     1      -8.957  -0.711  -2.949  1.00  0.00     0.119 HD
ATOM     48  H   UNL     1      -8.118  -1.492  -1.805  1.00  0.00     0.119 HD
ENDBRANCH  32  46
ENDBRANCH   2  32
TORSDOF 18
ENDMDL
MODEL 4
REMARK VINA RESULT:    -7.640      2.843      7.958
REMARK INTER + INTRA:         -18.013
REMARK INTER:                 -15.691
REMARK INTRA:                  -2.322
REMARK UNBOUND:                -3.897
REMARK SMILES NC(=O)OC[C@H](O)[C@@H](O)[C@H](N)C(=O)N[C@H](C(=O)O)[C@H]1O[C@@H](n2cc(C(=O)O)c(=O)[nH]c2=O)[C@H](O)[C@@H]1O
REMARK SMILES IDX 14 1 12 2 13 3 15 5 19 6 21 7 33 8 20 9 35 10 22 11 23 12
REMARK SMILES IDX 24 13 28 14 31 15 29 16 30 17 32 18 25 20 26 21 27 22 34 24
REMARK SMILES IDX 36 26 16 28 17 29 18 30 10 32 8 33 6 34 5 35 4 36 2 37 3 38
REMARK SMILES IDX 1 39 7 42 9 44 11 46
REMARK H PARENT 14 4 30 19 27 23 34 25 36 27 18 31 1 40 1 41 7 43 9 45 11 47
REMARK H PARENT 11 48
REMARK Flexibility Score: inf
ROOT
ATOM      1  N   UNL     1       1.016   4.972  -1.367  1.00  0.00    -0.339 N 
ATOM      2  C   UNL     1      -0.335   5.239  -1.362  1.00  0.00     0.240 C 
ATOM      3  O   UNL     1      -0.852   6.003  -0.550  1.00  0.00    -0.273 OA
ATOM      4  H   UNL     1       1.396   4.523  -2.204  1.00  0.00     0.164 HD
ENDROOT
BRANCH   1   5
ATOM      5  C   UNL     1       1.947   5.761  -0.556  1.00  0.00     0.224 C 
BRANCH   5   6
ATOM      6  C   UNL     1       3.016   4.853   0.067  1.00  0.00     0.186 C 
ATOM      7  C   UNL     1       3.546   2.597  -0.173  1.00  0.00     0.255 C 
ATOM      8  C   UNL     1       4.296   3.339  -1.289  1.00  0.00     0.196 C 
ATOM      9  O   UNL     1       2.502   3.504   0.233  1.00  0.00    -0.346 OA
ATOM     10  C   UNL     1       4.327   4.751  -0.722  1.00  0.00     0.179 C 
BRANCH   7  11
ATOM     11  N   UNL     1       2.971   1.325  -0.610  1.00  0.00    -0.270 N 
ATOM     12  C   UNL     1       3.775   0.236  -0.909  1.00  0.00     0.115 C 
ATOM     13  C   UNL     1       3.280  -0.966  -1.242  1.00  0.00     0.141 C 
ATOM     14  C   UNL     1       1.811  -1.116  -1.277  1.00  0.00     0.268 C 
ATOM     15  C   UNL     1       1.586   1.235  -0.649  1.00  0.00     0.330 C 
ATOM     16  O   UNL     1       1.248  -2.191  -1.451  1.00  0.00    -0.268 OA
ATOM     17  N   UNL     1       1.088   0.024  -1.051  1.00  0.00    -0.273 N 
ATOM     18  O   UNL     1       0.817   2.145  -0.353  1.00  0.00    -0.248 OA
ATOM     19  H   UNL     1       0.083  -0.069  -1.045  1.00  0.00     0.175 HD
BRANCH  13  20
ATOM     20  C   UNL     1       4.181  -2.080  -1.578  1.00  0.00     0.342 C 
ATOM     21  O   UNL     1       4.256  -3.157  -1.017  1.00  0.00    -0.246 OA
BRANCH  20  22
ATOM     22  O   UNL     1       4.977  -1.804  -2.629  1.00  0.00    -0.477 OA
ATOM     23  H   UNL     1       4.611  -2.361  -3.350  1.00  0.00     0.297 HD
ENDBRANCH  20  22
ENDBRANCH  13  20
ENDBRANCH   7  11
BRANCH   8  24
ATOM     24  O   UNL     1       5.617   2.866  -1.535  1.00  0.00    -0.386 OA
ATOM     25  H   UNL     1       5.675   1.954  -1.199  1.00  0.00     0.211 HD
ENDBRANCH   8  24
BRANCH  10  26
ATOM     26  O   UNL     1       5.436   4.870   0.185  1.00  0.00    -0.387 OA
ATOM     27  H   UNL     1       5.245   5.634   0.768  1.00  0.00     0.211 HD
ENDBRANCH  10  26
ENDBRANCH   5   6
BRANCH   5  28
ATOM     28  C   UNL     1       2.545   6.830  -1.471  1.00  0.00     0.329 C 
ATOM     29  O   UNL     1       2.686   6.766  -2.683  1.00  0.00    -0.250 OA
BRANCH  28  30
ATOM     30  O   UNL     1       2.951   7.933  -0.809  1.00  0.00    -0.480 OA
ATOM     31  H   UNL     1       3.835   7.679  -0.459  1.00  0.00     0.296 HD
ENDBRANCH  28  30
ENDBRANCH   5  28
ENDBRANCH   1   5
BRANCH   2  32
ATOM     32  C   UNL     1      -1.125   4.626  -2.540  1.00  0.00     0.173 C 
BRANCH  32  33
ATOM     33  C   UNL     1      -2.155   3.586  -2.034  1.00  0.00     0.172 C 
BRANCH  33  34
ATOM     34  C   UNL     1      -2.277   2.344  -2.940  1.00  0.00     0.183 C 
BRANCH  34  35
ATOM     35  C   UNL     1      -3.682   1.731  -2.844  1.00  0.00     0.269 C 
BRANCH  35  36
ATOM     36  O   UNL     1      -3.625   0.469  -2.148  1.00  0.00    -0.447 OA
BRANCH  36  37
ATOM     37  C   UNL     1      -4.181  -0.571  -2.810  1.00  0.00     0.404 C 
ATOM     38  O   UNL     1      -5.274  -1.063  -2.587  1.00  0.00    -0.225 OA
ATOM     39  N   UNL     1      -3.345  -1.001  -3.778  1.00  0.00    -0.335 N 
ATOM     40  H   UNL     1      -2.406  -0.636  -3.824  1.00  0.00     0.163 HD
ATOM     41  H   UNL     1      -3.588  -1.839  -4.287  1.00  0.00     0.163 HD
ENDBRANCH  36  37
ENDBRANCH  35  36
ENDBRANCH  34  35
BRANCH  34  42
ATOM     42  O   UNL     1      -1.332   1.346  -2.512  1.00  0.00    -0.387 OA
ATOM     43  H   UNL     1      -0.956   0.958  -3.324  1.00  0.00     0.211 HD
ENDBRANCH  34  42
ENDBRANCH  33  34
BRANCH  33  44
ATOM     44  O   UNL     1      -1.763   3.151  -0.713  1.00  0.00    -0.388 OA
ATOM     45  H   UNL     1      -2.564   3.345  -0.175  1.00  0.00     0.211 HD
ENDBRANCH  33  44
ENDBRANCH  32  33
BRANCH  32  46
ATOM     46  N   UNL     1      -0.139   4.072  -3.499  1.00  0.00    -0.318 NA
ATOM     47  H   UNL     1       0.092   4.797  -4.180  1.00  0.00     0.119 HD
ATOM     48  H   UNL     1      -0.605   3.342  -4.042  1.00  0.00     0.119 HD
ENDBRANCH  32  46
ENDBRANCH   2  32
TORSDOF 18
ENDMDL
MODEL 5
REMARK VINA RESULT:    -7.394      3.505      7.576
REMARK INTER + INTRA:         -17.558
REMARK INTER:                 -14.493
REMARK INTRA:                  -3.065
REMARK UNBOUND:                -3.897
REMARK SMILES NC(=O)OC[C@H](O)[C@@H](O)[C@H](N)C(=O)N[C@H](C(=O)O)[C@H]1O[C@@H](n2cc(C(=O)O)c(=O)[nH]c2=O)[C@H](O)[C@@H]1O
REMARK SMILES IDX 14 1 12 2 13 3 15 5 19 6 21 7 33 8 20 9 35 10 22 11 23 12
REMARK SMILES IDX 24 13 28 14 31 15 29 16 30 17 32 18 25 20 26 21 27 22 34 24
REMARK SMILES IDX 36 26 16 28 17 29 18 30 10 32 8 33 6 34 5 35 4 36 2 37 3 38
REMARK SMILES IDX 1 39 7 42 9 44 11 46
REMARK H PARENT 14 4 30 19 27 23 34 25 36 27 18 31 1 40 1 41 7 43 9 45 11 47
REMARK H PARENT 11 48
REMARK Flexibility Score: inf
ROOT
ATOM      1  N   UNL     1      -2.705   5.389  -1.783  1.00  0.00    -0.339 N 
ATOM      2  C   UNL     1      -3.712   5.718  -2.662  1.00  0.00     0.240 C 
ATOM      3  O   UNL     1      -3.638   5.484  -3.866  1.00  0.00    -0.273 OA
ATOM      4  H   UNL     1      -2.938   5.400  -0.787  1.00  0.00     0.164 HD
ENDROOT
BRANCH   1   5
ATOM      5  C   UNL     1      -1.589   4.533  -2.195  1.00  0.00     0.224 C 
BRANCH   5   6
ATOM      6  C   UNL     1      -0.301   4.947  -1.471  1.00  0.00     0.186 C 
ATOM      7  C   UNL     1       1.663   3.821  -0.919  1.00  0.00     0.255 C 
ATOM      8  C   UNL     1       1.855   4.354  -2.347  1.00  0.00     0.196 C 
ATOM      9  O   UNL     1       0.236   3.828  -0.715  1.00  0.00    -0.346 OA
ATOM     10  C   UNL     1       0.819   5.468  -2.378  1.00  0.00     0.179 C 
BRANCH   7  11
ATOM     11  N   UNL     1       2.196   2.473  -0.728  1.00  0.00    -0.270 N 
ATOM     12  C   UNL     1       1.394   1.353  -0.875  1.00  0.00     0.115 C 
ATOM     13  C   UNL     1       1.865   0.100  -0.780  1.00  0.00     0.141 C 
ATOM     14  C   UNL     1       3.308  -0.070  -0.515  1.00  0.00     0.268 C 
ATOM     15  C   UNL     1       3.554   2.361  -0.460  1.00  0.00     0.330 C 
ATOM     16  O   UNL     1       3.870  -1.159  -0.525  1.00  0.00    -0.268 OA
ATOM     17  N   UNL     1       4.016   1.081  -0.301  1.00  0.00    -0.273 N 
ATOM     18  O   UNL     1       4.329   3.308  -0.363  1.00  0.00    -0.248 OA
ATOM     19  H   UNL     1       5.009   0.982  -0.145  1.00  0.00     0.175 HD
BRANCH  13  20
ATOM     20  C   UNL     1       0.961  -1.053  -0.916  1.00  0.00     0.342 C 
ATOM     21  O   UNL     1      -0.189  -1.133  -0.529  1.00  0.00    -0.246 OA
BRANCH  20  22
ATOM     22  O   UNL     1       1.540  -2.093  -1.548  1.00  0.00    -0.477 OA
ATOM     23  H   UNL     1       0.918  -2.836  -1.389  1.00  0.00     0.297 HD
ENDBRANCH  20  22
ENDBRANCH  13  20
ENDBRANCH   7  11
BRANCH   8  24
ATOM     24  O   UNL     1       3.155   4.866  -2.622  1.00  0.00    -0.386 OA
ATOM     25  H   UNL     1       3.413   4.565  -3.512  1.00  0.00     0.211 HD
ENDBRANCH   8  24
BRANCH  10  26
ATOM     26  O   UNL     1       1.387   6.653  -1.796  1.00  0.00    -0.387 OA
ATOM     27  H   UNL     1       2.361   6.563  -1.861  1.00  0.00     0.211 HD
ENDBRANCH  10  26
ENDBRANCH   5   6
BRANCH   5  28
ATOM     28  C   UNL     1      -1.997   3.091  -1.894  1.00  0.00     0.329 C 
ATOM     29  O   UNL     1      -2.847   2.716  -1.100  1.00  0.00    -0.250 OA
BRANCH  28  30
ATOM     30  O   UNL     1      -1.298   2.180  -2.603  1.00  0.00    -0.480 OA
ATOM     31  H   UNL     1      -0.629   1.852  -1.961  1.00  0.00     0.296 HD
ENDBRANCH  28  30
ENDBRANCH   5  28
ENDBRANCH   1   5
BRANCH   2  32
ATOM     32  C   UNL     1      -4.999   6.265  -2.004  1.00  0.00     0.173 C 
BRANCH  32  33
ATOM     33  C   UNL     1      -5.927   5.109  -1.557  1.00  0.00     0.172 C 
BRANCH  33  34
ATOM     34  C   UNL     1      -7.408   5.323  -1.929  1.00  0.00     0.183 C 
BRANCH  34  35
ATOM     35  C   UNL     1      -8.123   6.171  -0.866  1.00  0.00     0.269 C 
BRANCH  35  36
ATOM     36  O   UNL     1      -8.407   7.485  -1.390  1.00  0.00    -0.447 OA
BRANCH  36  37
ATOM     37  C   UNL     1      -8.012   8.509  -0.601  1.00  0.00     0.404 C 
ATOM     38  O   UNL     1      -8.098   8.555   0.614  1.00  0.00    -0.225 OA
ATOM     39  N   UNL     1      -7.494   9.500  -1.357  1.00  0.00    -0.335 N 
ATOM     40  H   UNL     1      -7.572   9.454  -2.362  1.00  0.00     0.163 HD
ATOM     41  H   UNL     1      -7.252  10.372  -0.909  1.00  0.00     0.163 HD
ENDBRANCH  36  37
ENDBRANCH  35  36
ENDBRANCH  34  35
BRANCH  34  42
ATOM     42  O   UNL     1      -8.074   4.050  -1.996  1.00  0.00    -0.387 OA
ATOM     43  H   UNL     1      -8.843   4.109  -1.401  1.00  0.00     0.211 HD
ENDBRANCH  34  42
ENDBRANCH  33  34
BRANCH  33  44
ATOM     44  O   UNL     1      -5.473   3.885  -2.178  1.00  0.00    -0.388 OA
ATOM     45  H   UNL     1      -6.067   3.208  -1.780  1.00  0.00     0.211 HD
ENDBRANCH  33  44
ENDBRANCH  32  33
BRANCH  32  46
ATOM     46  N   UNL     1      -5.632   7.198  -2.969  1.00  0.00    -0.318 NA
ATOM     47  H   UNL     1      -5.954   6.660  -3.775  1.00  0.00     0.119 HD
ATOM     48  H   UNL     1      -4.901   7.811  -3.338  1.00  0.00     0.119 HD
ENDBRANCH  32  46
ENDBRANCH   2  32
TORSDOF 18
ENDMDL
MODEL 6
REMARK VINA RESULT:    -7.261      3.102      7.797
REMARK INTER + INTRA:         -17.313
REMARK INTER:                 -14.007
REMARK INTRA:                  -3.307
REMARK UNBOUND:                -3.897
REMARK SMILES NC(=O)OC[C@H](O)[C@@H](O)[C@H](N)C(=O)N[C@H](C(=O)O)[C@H]1O[C@@H](n2cc(C(=O)O)c(=O)[nH]c2=O)[C@H](O)[C@@H]1O
REMARK SMILES IDX 14 1 12 2 13 3 15 5 19 6 21 7 33 8 20 9 35 10 22 11 23 12
REMARK SMILES IDX 24 13 28 14 31 15 29 16 30 17 32 18 25 20 26 21 27 22 34 24
REMARK SMILES IDX 36 26 16 28 17 29 18 30 10 32 8 33 6 34 5 35 4 36 2 37 3 38
REMARK SMILES IDX 1 39 7 42 9 44 11 46
REMARK H PARENT 14 4 30 19 27 23 34 25 36 27 18 31 1 40 1 41 7 43 9 45 11 47
REMARK H PARENT 11 48
REMARK Flexibility Score: inf
ROOT
ATOM      1  N   UNL     1       1.037   5.595  -2.068  1.00  0.00    -0.339 N 
ATOM      2  C   UNL     1      -0.299   5.420  -1.784  1.00  0.00     0.240 C 
ATOM      3  O   UNL     1      -0.782   5.699  -0.689  1.00  0.00    -0.273 OA
ATOM      4  H   UNL     1       1.308   5.565  -3.054  1.00  0.00     0.164 HD
ENDROOT
BRANCH   1   5
ATOM      5  C   UNL     1       1.913   6.341  -1.160  1.00  0.00     0.224 C 
BRANCH   5   6
ATOM      6  C   UNL     1       2.808   5.377  -0.369  1.00  0.00     0.186 C 
ATOM      7  C   UNL     1       2.891   3.058  -0.171  1.00  0.00     0.255 C 
ATOM      8  C   UNL     1       3.734   3.417  -1.404  1.00  0.00     0.196 C 
ATOM      9  O   UNL     1       2.052   4.209   0.048  1.00  0.00    -0.346 OA
ATOM     10  C   UNL     1       4.050   4.878  -1.117  1.00  0.00     0.179 C 
BRANCH   7  11
ATOM     11  N   UNL     1       2.071   1.861  -0.361  1.00  0.00    -0.270 N 
ATOM     12  C   UNL     1       0.733   1.952  -0.707  1.00  0.00     0.115 C 
ATOM     13  C   UNL     1      -0.030   0.878  -0.961  1.00  0.00     0.141 C 
ATOM     14  C   UNL     1       0.608  -0.452  -0.868  1.00  0.00     0.268 C 
ATOM     15  C   UNL     1       2.707   0.632  -0.244  1.00  0.00     0.330 C 
ATOM     16  O   UNL     1       0.045  -1.491  -1.192  1.00  0.00    -0.268 OA
ATOM     17  N   UNL     1       1.908  -0.462  -0.441  1.00  0.00    -0.273 N 
ATOM     18  O   UNL     1       3.898   0.482   0.015  1.00  0.00    -0.248 OA
ATOM     19  H   UNL     1       2.365  -1.361  -0.399  1.00  0.00     0.175 HD
BRANCH  13  20
ATOM     20  C   UNL     1      -1.454   1.032  -1.297  1.00  0.00     0.342 C 
ATOM     21  O   UNL     1      -2.394   1.038  -0.525  1.00  0.00    -0.246 OA
BRANCH  20  22
ATOM     22  O   UNL     1      -1.662   1.177  -2.621  1.00  0.00    -0.477 OA
ATOM     23  H   UNL     1      -0.932   1.768  -2.906  1.00  0.00     0.297 HD
ENDBRANCH  20  22
ENDBRANCH  13  20
ENDBRANCH   7  11
BRANCH   8  24
ATOM     24  O   UNL     1       4.932   2.661  -1.548  1.00  0.00    -0.386 OA
ATOM     25  H   UNL     1       4.821   1.829  -1.054  1.00  0.00     0.211 HD
ENDBRANCH   8  24
BRANCH  10  26
ATOM     26  O   UNL     1       5.189   4.949  -0.243  1.00  0.00    -0.387 OA
ATOM     27  H   UNL     1       5.075   4.246   0.430  1.00  0.00     0.211 HD
ENDBRANCH  10  26
ENDBRANCH   5   6
BRANCH   5  28
ATOM     28  C   UNL     1       2.715   7.321  -2.016  1.00  0.00     0.329 C 
ATOM     29  O   UNL     1       2.999   7.204  -3.199  1.00  0.00    -0.250 OA
BRANCH  28  30
ATOM     30  O   UNL     1       3.136   8.405  -1.332  1.00  0.00    -0.480 OA
ATOM     31  H   UNL     1       3.967   8.660  -1.794  1.00  0.00     0.296 HD
ENDBRANCH  28  30
ENDBRANCH   5  28
ENDBRANCH   1   5
BRANCH   2  32
ATOM     32  C   UNL     1      -1.170   4.989  -2.986  1.00  0.00     0.173 C 
BRANCH  32  33
ATOM     33  C   UNL     1      -2.660   4.874  -2.577  1.00  0.00     0.172 C 
BRANCH  33  34
ATOM     34  C   UNL     1      -3.574   4.356  -3.706  1.00  0.00     0.183 C 
BRANCH  34  35
ATOM     35  C   UNL     1      -4.879   5.163  -3.767  1.00  0.00     0.269 C 
BRANCH  35  36
ATOM     36  O   UNL     1      -5.277   5.562  -2.439  1.00  0.00    -0.447 OA
BRANCH  36  37
ATOM     37  C   UNL     1      -6.275   4.827  -1.899  1.00  0.00     0.404 C 
ATOM     38  O   UNL     1      -6.927   3.971  -2.472  1.00  0.00    -0.225 OA
ATOM     39  N   UNL     1      -6.457   5.173  -0.607  1.00  0.00    -0.335 N 
ATOM     40  H   UNL     1      -5.974   5.976  -0.234  1.00  0.00     0.163 HD
ATOM     41  H   UNL     1      -7.240   4.775  -0.108  1.00  0.00     0.163 HD
ENDBRANCH  36  37
ENDBRANCH  35  36
ENDBRANCH  34  35
BRANCH  34  42
ATOM     42  O   UNL     1      -3.917   2.983  -3.451  1.00  0.00    -0.387 OA
ATOM     43  H   UNL     1      -4.874   2.968  -3.262  1.00  0.00     0.211 HD
ENDBRANCH  34  42
ENDBRANCH  33  34
BRANCH  33  44
ATOM     44  O   UNL     1      -2.763   3.969  -1.455  1.00  0.00    -0.388 OA
ATOM     45  H   UNL     1      -3.663   3.585  -1.569  1.00  0.00     0.211 HD
ENDBRANCH  33  44
ENDBRANCH  32  33
BRANCH  32  46
ATOM     46  N   UNL     1      -0.600   3.729  -3.522  1.00  0.00    -0.318 NA
ATOM     47  H   UNL     1      -1.362   3.063  -3.662  1.00  0.00     0.119 HD
ATOM     48  H   UNL     1      -0.019   3.312  -2.791  1.00  0.00     0.119 HD
ENDBRANCH  32  46
ENDBRANCH   2  32
TORSDOF 18
ENDMDL
MODEL 7
REMARK VINA RESULT:    -7.132      1.679      2.276
REMARK INTER + INTRA:         -17.075
REMARK INTER:                 -14.091
REMARK INTRA:                  -2.984
REMARK UNBOUND:                -3.897
REMARK SMILES NC(=O)OC[C@H](O)[C@@H](O)[C@H](N)C(=O)N[C@H](C(=O)O)[C@H]1O[C@@H](n2cc(C(=O)O)c(=O)[nH]c2=O)[C@H](O)[C@@H]1O
REMARK SMILES IDX 14 1 12 2 13 3 15 5 19 6 21 7 33 8 20 9 35 10 22 11 23 12
REMARK SMILES IDX 24 13 28 14 31 15 29 16 30 17 32 18 25 20 26 21 27 22 34 24
REMARK SMILES IDX 36 26 16 28 17 29 18 30 10 32 8 33 6 34 5 35 4 36 2 37 3 38
REMARK SMILES IDX 1 39 7 42 9 44 11 46
REMARK H PARENT 14 4 30 19 27 23 34 25 36 27 18 31 1 40 1 41 7 43 9 45 11 47
REMARK H PARENT 11 48
REMARK Flexibility Score: inf
ROOT
ATOM      1  N   UNL     1      -2.568   3.356  -2.275  1.00  0.00    -0.339 N 
ATOM      2  C   UNL     1      -1.488   4.201  -2.147  1.00  0.00     0.240 C 
ATOM      3  O   UNL     1      -1.215   5.053  -2.990  1.00  0.00    -0.273 OA
ATOM      4  H   UNL     1      -2.859   2.849  -1.436  1.00  0.00     0.164 HD
ENDROOT
BRANCH   1   5
ATOM      5  C   UNL     1      -3.586   3.578  -3.305  1.00  0.00     0.224 C 
BRANCH   5   6
ATOM      6  C   UNL     1      -4.044   2.241  -3.902  1.00  0.00     0.186 C 
ATOM      7  C   UNL     1      -3.639   0.013  -3.352  1.00  0.00     0.255 C 
ATOM      8  C   UNL     1      -4.831   0.462  -2.492  1.00  0.00     0.196 C 
ATOM      9  O   UNL     1      -3.001   1.239  -3.761  1.00  0.00    -0.346 OA
ATOM     10  C   UNL     1      -5.325   1.659  -3.293  1.00  0.00     0.179 C 
BRANCH   7  11
ATOM     11  N   UNL     1      -2.692  -0.834  -2.628  1.00  0.00    -0.270 N 
ATOM     12  C   UNL     1      -1.627  -0.290  -1.928  1.00  0.00     0.115 C 
ATOM     13  C   UNL     1      -0.783  -1.031  -1.194  1.00  0.00     0.141 C 
ATOM     14  C   UNL     1      -1.021  -2.488  -1.136  1.00  0.00     0.268 C 
ATOM     15  C   UNL     1      -2.944  -2.200  -2.618  1.00  0.00     0.330 C 
ATOM     16  O   UNL     1      -0.391  -3.244  -0.407  1.00  0.00    -0.268 OA
ATOM     17  N   UNL     1      -2.041  -2.957  -1.919  1.00  0.00    -0.273 N 
ATOM     18  O   UNL     1      -3.893  -2.741  -3.178  1.00  0.00    -0.248 OA
ATOM     19  H   UNL     1      -2.233  -3.947  -1.869  1.00  0.00     0.175 HD
BRANCH  13  20
ATOM     20  C   UNL     1       0.349  -0.403  -0.493  1.00  0.00     0.342 C 
ATOM     21  O   UNL     1       1.532  -0.550  -0.732  1.00  0.00    -0.246 OA
BRANCH  20  22
ATOM     22  O   UNL     1      -0.047   0.407   0.509  1.00  0.00    -0.477 OA
ATOM     23  H   UNL     1      -0.202   1.268   0.064  1.00  0.00     0.297 HD
ENDBRANCH  20  22
ENDBRANCH  13  20
ENDBRANCH   7  11
BRANCH   8  24
ATOM     24  O   UNL     1      -5.863  -0.510  -2.351  1.00  0.00    -0.386 OA
ATOM     25  H   UNL     1      -6.049  -0.877  -3.233  1.00  0.00     0.211 HD
ENDBRANCH   8  24
BRANCH  10  26
ATOM     26  O   UNL     1      -6.183   1.196  -4.349  1.00  0.00    -0.387 OA
ATOM     27  H   UNL     1      -6.599   0.365  -4.034  1.00  0.00     0.211 HD
ENDBRANCH  10  26
ENDBRANCH   5   6
BRANCH   5  28
ATOM     28  C   UNL     1      -4.729   4.350  -2.646  1.00  0.00     0.329 C 
ATOM     29  O   UNL     1      -5.618   4.972  -3.208  1.00  0.00    -0.250 OA
BRANCH  28  30
ATOM     30  O   UNL     1      -4.691   4.312  -1.298  1.00  0.00    -0.480 OA
ATOM     31  H   UNL     1      -4.834   3.362  -1.090  1.00  0.00     0.296 HD
ENDBRANCH  28  30
ENDBRANCH   5  28
ENDBRANCH   1   5
BRANCH   2  32
ATOM     32  C   UNL     1      -0.736   4.100  -0.801  1.00  0.00     0.173 C 
BRANCH  32  33
ATOM     33  C   UNL     1       0.798   4.134  -1.019  1.00  0.00     0.172 C 
BRANCH  33  34
ATOM     34  C   UNL     1       1.440   5.497  -0.693  1.00  0.00     0.183 C 
BRANCH  34  35
ATOM     35  C   UNL     1       2.971   5.417  -0.784  1.00  0.00     0.269 C 
BRANCH  35  36
ATOM     36  O   UNL     1       3.531   5.163   0.521  1.00  0.00    -0.447 OA
BRANCH  36  37
ATOM     37  C   UNL     1       4.628   4.373   0.524  1.00  0.00     0.404 C 
ATOM     38  O   UNL     1       5.771   4.728   0.290  1.00  0.00    -0.225 OA
ATOM     39  N   UNL     1       4.282   3.105   0.833  1.00  0.00    -0.335 N 
ATOM     40  H   UNL     1       3.306   2.854   0.887  1.00  0.00     0.163 HD
ATOM     41  H   UNL     1       4.987   2.385   0.772  1.00  0.00     0.163 HD
ENDBRANCH  36  37
ENDBRANCH  35  36
ENDBRANCH  34  35
BRANCH  34  42
ATOM     42  O   UNL     1       1.098   5.877   0.652  1.00  0.00    -0.387 OA
ATOM     43  H   UNL     1       1.790   6.498   0.947  1.00  0.00     0.211 HD
ENDBRANCH  34  42
ENDBRANCH  33  34
BRANCH  33  44
ATOM     44  O   UNL     1       1.407   3.129  -0.177  1.00  0.00    -0.388 OA
ATOM     45  H   UNL     1       2.070   2.719  -0.777  1.00  0.00     0.211 HD
ENDBRANCH  33  44
ENDBRANCH  32  33
BRANCH  32  46
ATOM     46  N   UNL     1      -1.214   2.876  -0.114  1.00  0.00    -0.318 NA
ATOM     47  H   UNL     1      -0.767   2.826   0.804  1.00  0.00     0.119 HD
ATOM     48  H   UNL     1      -0.853   2.067  -0.625  1.00  0.00     0.119 HD
ENDBRANCH  32  46
ENDBRANCH   2  32
TORSDOF 18
ENDMDL
MODEL 8
REMARK VINA RESULT:    -7.080      2.095      4.958
REMARK INTER + INTRA:         -16.978
REMARK INTER:                 -12.748
REMARK INTRA:                  -4.231
REMARK UNBOUND:                -3.897
REMARK SMILES NC(=O)OC[C@H](O)[C@@H](O)[C@H](N)C(=O)N[C@H](C(=O)O)[C@H]1O[C@@H](n2cc(C(=O)O)c(=O)[nH]c2=O)[C@H](O)[C@@H]1O
REMARK SMILES IDX 14 1 12 2 13 3 15 5 19 6 21 7 33 8 20 9 35 10 22 11 23 12
REMARK SMILES IDX 24 13 28 14 31 15 29 16 30 17 32 18 25 20 26 21 27 22 34 24
REMARK SMILES IDX 36 26 16 28 17 29 18 30 10 32 8 33 6 34 5 35 4 36 2 37 3 38
REMARK SMILES IDX 1 39 7 42 9 44 11 46
REMARK H PARENT 14 4 30 19 27 23 34 25 36 27 18 31 1 40 1 41 7 43 9 45 11 47
REMARK H PARENT 11 48
REMARK Flexibility Score: inf
ROOT
ATOM      1  N   UNL     1       0.878   4.676  -2.941  1.00  0.00    -0.339 N 
ATOM      2  C   UNL     1       2.014   5.358  -2.570  1.00  0.00     0.240 C 
ATOM      3  O   UNL     1       2.017   6.570  -2.364  1.00  0.00    -0.273 OA
ATOM      4  H   UNL     1       0.904   3.656  -2.862  1.00  0.00     0.164 HD
ENDROOT
BRANCH   1   5
ATOM      5  C   UNL     1      -0.441   5.313  -2.886  1.00  0.00     0.224 C 
BRANCH   5   6
ATOM      6  C   UNL     1      -1.322   4.822  -4.043  1.00  0.00     0.186 C 
ATOM      7  C   UNL     1      -2.699   2.966  -4.337  1.00  0.00     0.255 C 
ATOM      8  C   UNL     1      -3.558   4.038  -3.648  1.00  0.00     0.196 C 
ATOM      9  O   UNL     1      -1.339   3.370  -4.086  1.00  0.00    -0.346 OA
ATOM     10  C   UNL     1      -2.779   5.298  -4.000  1.00  0.00     0.179 C 
BRANCH   7  11
ATOM     11  N   UNL     1      -2.933   1.619  -3.819  1.00  0.00    -0.270 N 
ATOM     12  C   UNL     1      -2.254   1.147  -2.708  1.00  0.00     0.115 C 
ATOM     13  C   UNL     1      -2.495  -0.056  -2.162  1.00  0.00     0.141 C 
ATOM     14  C   UNL     1      -3.541  -0.893  -2.784  1.00  0.00     0.268 C 
ATOM     15  C   UNL     1      -3.910   0.859  -4.448  1.00  0.00     0.330 C 
ATOM     16  O   UNL     1      -3.928  -1.952  -2.305  1.00  0.00    -0.268 OA
ATOM     17  N   UNL     1      -4.107  -0.392  -3.925  1.00  0.00    -0.273 N 
ATOM     18  O   UNL     1      -4.579   1.233  -5.407  1.00  0.00    -0.248 OA
ATOM     19  H   UNL     1      -4.842  -0.941  -4.347  1.00  0.00     0.175 HD
BRANCH  13  20
ATOM     20  C   UNL     1      -1.723  -0.518  -0.997  1.00  0.00     0.342 C 
ATOM     21  O   UNL     1      -1.692  -0.014   0.109  1.00  0.00    -0.246 OA
BRANCH  20  22
ATOM     22  O   UNL     1      -0.999  -1.624  -1.261  1.00  0.00    -0.477 OA
ATOM     23  H   UNL     1      -0.082  -1.284  -1.349  1.00  0.00     0.297 HD
ENDBRANCH  20  22
ENDBRANCH  13  20
ENDBRANCH   7  11
BRANCH   8  24
ATOM     24  O   UNL     1      -4.898   4.125  -4.123  1.00  0.00    -0.386 OA
ATOM     25  H   UNL     1      -5.068   5.053  -4.366  1.00  0.00     0.211 HD
ENDBRANCH   8  24
BRANCH  10  26
ATOM     26  O   UNL     1      -3.170   5.741  -5.310  1.00  0.00    -0.387 OA
ATOM     27  H   UNL     1      -2.767   6.624  -5.444  1.00  0.00     0.211 HD
ENDBRANCH  10  26
ENDBRANCH   5   6
BRANCH   5  28
ATOM     28  C   UNL     1      -1.037   4.991  -1.515  1.00  0.00     0.329 C 
ATOM     29  O   UNL     1      -1.678   5.742  -0.796  1.00  0.00    -0.250 OA
BRANCH  28  30
ATOM     30  O   UNL     1      -0.784   3.730  -1.106  1.00  0.00    -0.480 OA
ATOM     31  H   UNL     1      -1.165   3.175  -1.824  1.00  0.00     0.296 HD
ENDBRANCH  28  30
ENDBRANCH   5  28
ENDBRANCH   1   5
BRANCH   2  32
ATOM     32  C   UNL     1       3.246   4.469  -2.287  1.00  0.00     0.173 C 
BRANCH  32  33
ATOM     33  C   UNL     1       2.870   3.276  -1.374  1.00  0.00     0.172 C 
BRANCH  33  34
ATOM     34  C   UNL     1       4.084   2.450  -0.904  1.00  0.00     0.183 C 
BRANCH  34  35
ATOM     35  C   UNL     1       3.707   0.970  -0.736  1.00  0.00     0.269 C 
BRANCH  35  36
ATOM     36  O   UNL     1       2.279   0.807  -0.858  1.00  0.00    -0.447 OA
BRANCH  36  37
ATOM     37  C   UNL     1       1.686   0.191   0.190  1.00  0.00     0.404 C 
ATOM     38  O   UNL     1       1.646  -1.011   0.388  1.00  0.00    -0.225 OA
ATOM     39  N   UNL     1       1.133   1.108   1.011  1.00  0.00    -0.335 N 
ATOM     40  H   UNL     1       1.089   2.074   0.723  1.00  0.00     0.163 HD
ATOM     41  H   UNL     1       0.567   0.785   1.783  1.00  0.00     0.163 HD
ENDBRANCH  36  37
ENDBRANCH  35  36
ENDBRANCH  34  35
BRANCH  34  42
ATOM     42  O   UNL     1       4.529   2.938   0.374  1.00  0.00    -0.387 OA
ATOM     43  H   UNL     1       5.146   3.670   0.189  1.00  0.00     0.211 HD
ENDBRANCH  34  42
ENDBRANCH  33  34
BRANCH  33  44
ATOM     44  O   UNL     1       2.185   3.785  -0.207  1.00  0.00    -0.388 OA
ATOM     45  H   UNL     1       1.694   4.559  -0.567  1.00  0.00     0.211 HD
ENDBRANCH  33  44
ENDBRANCH  32  33
BRANCH  32  46
ATOM     46  N   UNL     1       4.306   5.341  -1.725  1.00  0.00    -0.318 NA
ATOM     47  H   UNL     1       4.099   5.505  -0.738  1.00  0.00     0.119 HD
ATOM     48  H   UNL     1       4.224   6.259  -2.166  1.00  0.00     0.119 HD
ENDBRANCH  32  46
ENDBRANCH   2  32
TORSDOF 18
ENDMDL
MODEL 9
REMARK VINA RESULT:    -7.026      3.185      6.679
REMARK INTER + INTRA:         -16.879
REMARK INTER:                 -14.038
REMARK INTRA:                  -2.841
REMARK UNBOUND:                -3.897
REMARK SMILES NC(=O)OC[C@H](O)[C@@H](O)[C@H](N)C(=O)N[C@H](C(=O)O)[C@H]1O[C@@H](n2cc(C(=O)O)c(=O)[nH]c2=O)[C@H](O)[C@@H]1O
REMARK SMILES IDX 14 1 12 2 13 3 15 5 19 6 21 7 33 8 20 9 35 10 22 11 23 12
REMARK SMILES IDX 24 13 28 14 31 15 29 16 30 17 32 18 25 20 26 21 27 22 34 24
REMARK SMILES IDX 36 26 16 28 17 29 18 30 10 32 8 33 6 34 5 35 4 36 2 37 3 38
REMARK SMILES IDX 1 39 7 42 9 44 11 46
REMARK H PARENT 14 4 30 19 27 23 34 25 36 27 18 31 1 40 1 41 7 43 9 45 11 47
REMARK H PARENT 11 48
REMARK Flexibility Score: inf
ROOT
ATOM      1  N   UNL     1      -3.405   3.045  -2.175  1.00  0.00    -0.339 N 
ATOM      2  C   UNL     1      -2.459   2.107  -1.825  1.00  0.00     0.240 C 
ATOM      3  O   UNL     1      -2.157   1.170  -2.560  1.00  0.00    -0.273 OA
ATOM      4  H   UNL     1      -3.426   3.907  -1.626  1.00  0.00     0.164 HD
ENDROOT
BRANCH   1   5
ATOM      5  C   UNL     1      -3.936   3.112  -3.539  1.00  0.00     0.224 C 
BRANCH   5   6
ATOM      6  C   UNL     1      -5.469   3.034  -3.521  1.00  0.00     0.186 C 
ATOM      7  C   UNL     1      -7.150   4.584  -3.071  1.00  0.00     0.255 C 
ATOM      8  C   UNL     1      -6.805   4.738  -4.561  1.00  0.00     0.196 C 
ATOM      9  O   UNL     1      -6.008   3.915  -2.499  1.00  0.00    -0.346 OA
ATOM     10  C   UNL     1      -6.156   3.391  -4.845  1.00  0.00     0.179 C 
BRANCH   7  11
ATOM     11  N   UNL     1      -7.381   5.860  -2.397  1.00  0.00    -0.270 N 
ATOM     12  C   UNL     1      -6.978   7.058  -2.964  1.00  0.00     0.115 C 
ATOM     13  C   UNL     1      -7.238   8.252  -2.410  1.00  0.00     0.141 C 
ATOM     14  C   UNL     1      -7.996   8.268  -1.142  1.00  0.00     0.268 C 
ATOM     15  C   UNL     1      -8.079   5.826  -1.197  1.00  0.00     0.330 C 
ATOM     16  O   UNL     1      -8.393   9.297  -0.608  1.00  0.00    -0.268 OA
ATOM     17  N   UNL     1      -8.286   7.043  -0.604  1.00  0.00    -0.273 N 
ATOM     18  O   UNL     1      -8.504   4.805  -0.663  1.00  0.00    -0.248 OA
ATOM     19  H   UNL     1      -8.827   7.038   0.248  1.00  0.00     0.175 HD
BRANCH  13  20
ATOM     20  C   UNL     1      -6.761   9.493  -3.042  1.00  0.00     0.342 C 
ATOM     21  O   UNL     1      -7.032   9.899  -4.156  1.00  0.00    -0.246 OA
BRANCH  20  22
ATOM     22  O   UNL     1      -5.941  10.201  -2.241  1.00  0.00    -0.477 OA
ATOM     23  H   UNL     1      -5.140  10.337  -2.791  1.00  0.00     0.297 HD
ENDBRANCH  20  22
ENDBRANCH  13  20
ENDBRANCH   7  11
BRANCH   8  24
ATOM     24  O   UNL     1      -7.927   4.946  -5.413  1.00  0.00    -0.386 OA
ATOM     25  H   UNL     1      -8.053   4.138  -5.943  1.00  0.00     0.211 HD
ENDBRANCH   8  24
BRANCH  10  26
ATOM     26  O   UNL     1      -7.182   2.423  -5.120  1.00  0.00    -0.387 OA
ATOM     27  H   UNL     1      -6.790   1.539  -4.960  1.00  0.00     0.211 HD
ENDBRANCH  10  26
ENDBRANCH   5   6
BRANCH   5  28
ATOM     28  C   UNL     1      -3.420   4.411  -4.158  1.00  0.00     0.329 C 
ATOM     29  O   UNL     1      -2.872   4.544  -5.242  1.00  0.00    -0.250 OA
BRANCH  28  30
ATOM     30  O   UNL     1      -3.611   5.490  -3.370  1.00  0.00    -0.480 OA
ATOM     31  H   UNL     1      -3.725   5.102  -2.473  1.00  0.00     0.296 HD
ENDBRANCH  28  30
ENDBRANCH   5  28
ENDBRANCH   1   5
BRANCH   2  32
ATOM     32  C   UNL     1      -1.702   2.404  -0.511  1.00  0.00     0.173 C 
BRANCH  32  33
ATOM     33  C   UNL     1      -0.202   2.680  -0.785  1.00  0.00     0.172 C 
BRANCH  33  34
ATOM     34  C   UNL     1       0.727   1.524  -0.366  1.00  0.00     0.183 C 
BRANCH  34  35
ATOM     35  C   UNL     1       2.180   2.007  -0.244  1.00  0.00     0.269 C 
BRANCH  35  36
ATOM     36  O   UNL     1       2.308   3.336  -0.792  1.00  0.00    -0.447 OA
BRANCH  36  37
ATOM     37  C   UNL     1       3.579   3.739  -1.016  1.00  0.00     0.404 C 
ATOM     38  O   UNL     1       4.502   3.677  -0.223  1.00  0.00    -0.225 OA
ATOM     39  N   UNL     1       3.693   4.228  -2.269  1.00  0.00    -0.335 N 
ATOM     40  H   UNL     1       2.865   4.370  -2.826  1.00  0.00     0.163 HD
ATOM     41  H   UNL     1       4.565   4.660  -2.539  1.00  0.00     0.163 HD
ENDBRANCH  36  37
ENDBRANCH  35  36
ENDBRANCH  34  35
BRANCH  34  42
ATOM     42  O   UNL     1       0.689   0.492  -1.367  1.00  0.00    -0.387 OA
ATOM     43  H   UNL     1      -0.137  -0.005  -1.219  1.00  0.00     0.211 HD
ENDBRANCH  34  42
ENDBRANCH  33  34
BRANCH  33  44
ATOM     44  O   UNL     1      -0.028   2.916  -2.201  1.00  0.00    -0.388 OA
ATOM     45  H   UNL     1      -0.742   3.563  -2.401  1.00  0.00     0.211 HD
ENDBRANCH  33  44
ENDBRANCH  32  33
BRANCH  32  46
ATOM     46  N   UNL     1      -1.940   1.264   0.408  1.00  0.00    -0.318 NA
ATOM     47  H   UNL     1      -1.035   0.904   0.718  1.00  0.00     0.119 HD
ATOM     48  H   UNL     1      -2.352   0.503  -0.136  1.00  0.00     0.119 HD
ENDBRANCH  32  46
ENDBRANCH   2  32
TORSDOF 18
ENDMDL
