MODEL 1
REMARK VINA RESULT:    -5.894      0.000      0.000
REMARK INTER + INTRA:         -11.991
REMARK INTER:                 -10.028
REMARK INTRA:                  -1.963
REMARK UNBOUND:                -1.963
REMARK  Name = 
REMARK  16 active torsions:
REMARK  status: ('A' for Active; 'I' for Inactive)
REMARK    1  A    between atoms: C_1  and  C_2
REMARK    2  A    between atoms: C_2  and  C_3
REMARK    3  A    between atoms: C_2  and  CA_12
REMARK    4  A    between atoms: C_3  and  C_4
REMARK    5  A    between atoms: C_3  and  O_11
REMARK    6  A    between atoms: C_7  and  O_10
REMARK    7  A    between atoms: CA_12  and  C_13
REMARK    8  A    between atoms: CA_12  and  N_35
REMARK    9  A    between atoms: N_15  and  CA_16
REMARK   10  A    between atoms: CA_16  and  C_17
REMARK   11  A    between atoms: CA_16  and  C_32
REMARK   12  A    between atoms: C_18  and  O_31
REMARK   13  A    between atoms: C_19  and  O_30
REMARK   14  A    between atoms: C_20  and  N_22
REMARK   15  A    between atoms: CA_24  and  C_28
REMARK   16  A    between atoms: C_32  and  OXT_34
REMARK                            x       y       z     vdW  Elec       q    Type
REMARK                         _______ _______ _______ _____ _____    ______ ____
ROOT
ATOM      1  CA  UNL     1      98.901 137.790  60.619  0.00  0.00    +0.213 C 
ENDROOT
BRANCH   1   2
ATOM      2  C   UNL     1      97.480 137.513  60.096  0.00  0.00    +0.183 C 
ATOM      3  C   UNL     1      97.234 136.115  59.518  0.00  0.00    +0.178 C 
ATOM      4  C   UNL     1      96.236 136.345  58.375  0.00  0.00    +0.195 C 
ATOM      5  C   UNL     1      95.894 137.841  58.461  0.00  0.00    +0.255 C 
ATOM      6  O   UNL     1      97.035 138.447  59.105  0.00  0.00    -0.345 OA
BRANCH   5   7
ATOM      7  N   UNL     1      94.685 138.176  59.189  0.00  0.00    -0.270 N 
ATOM      8  C   UNL     1      94.564 138.756  60.436  0.00  0.00    +0.122 A 
ATOM      9  CA  UNL     1      93.274 138.833  60.756  0.00  0.00    +0.099 A 
ATOM     10  N   UNL     1      92.526 138.317  59.728  0.00  0.00    -0.304 N 
ATOM     11  C   UNL     1      93.391 137.877  58.710  0.00  0.00    +0.329 A 
ATOM     12  O   UNL     1      93.060 137.344  57.669  0.00  0.00    -0.246 OA
ATOM     13  H   UNL     1      91.523 138.218  59.679  0.00  0.00    +0.171 HD
BRANCH   9  14
ATOM     14  C   UNL     1      92.733 139.368  62.019  0.00  0.00    +0.278 C 
ATOM     15  O   UNL     1      93.451 139.784  62.916  0.00  0.00    -0.294 OA
ENDBRANCH   9  14
ENDBRANCH   5   7
BRANCH   4  16
ATOM     16  O   UNL     1      95.117 135.463  58.408  0.00  0.00    -0.385 OA
ATOM     17  H   UNL     1      94.390 135.969  58.825  0.00  0.00    +0.210 HD
ENDBRANCH   4  16
BRANCH   3  18
ATOM     18  O   UNL     1      96.688 135.200  60.472  0.00  0.00    -0.386 OA
ATOM     19  H   UNL     1      96.218 135.688  61.181  0.00  0.00    +0.210 HD
ENDBRANCH   3  18
ENDBRANCH   1   2
BRANCH   1  22
ATOM     20  C   UNL     1     101.213 137.133  59.973  0.00  0.00    +0.231 C 
ATOM     21  O   UNL     1     101.623 138.279  60.110  0.00  0.00    -0.274 OA
ATOM     22  N   UNL     1      99.914 136.771  60.290  0.00  0.00    -0.299 N 
ATOM     23  H   UNL     1      99.602 135.841  60.034  0.00  0.00    +0.150 HD
BRANCH  20  24
ATOM     24  CA  UNL     1     102.138 135.962  59.549  0.00  0.00    +0.143 C 
BRANCH  24  25
ATOM     25  N   UNL     1     101.733 134.767  60.322  0.00  0.00    -0.320 NA
ATOM     26  H1  UNL     1     102.049 134.818  61.284  0.00  0.00    +0.119 HD
ATOM     27  H2  UNL     1     102.192 133.951  59.903  0.00  0.00    +0.119 HD
ENDBRANCH  24  25
BRANCH  24  29
ATOM     28  C   UNL     1     103.518 135.205  57.572  0.00  0.00    +0.012 C 
ATOM     29  C   UNL     1     102.124 135.685  58.024  0.00  0.00    +0.046 C 
BRANCH  29  30
ATOM     30  C   UNL     1     101.029 134.646  57.658  0.00  0.00    +0.168 C 
BRANCH  30  31
ATOM     31  C   UNL     1      99.934 135.246  56.784  0.00  0.00    +0.070 A 
ATOM     32  N   UNL     1      99.815 136.603  56.807  0.00  0.00    -0.254 NA
ATOM     33  C   UNL     1      98.809 137.151  56.085  0.00  0.00    +0.156 A 
ATOM     34  C   UNL     1      97.915 136.407  55.334  0.00  0.00    +0.135 A 
ATOM     35  C   UNL     1      98.057 135.028  55.306  0.00  0.00    +0.049 A 
ATOM     36  C   UNL     1      99.082 134.432  56.039  0.00  0.00    +0.029 A 
BRANCH  34  37
ATOM     37  O   UNL     1      96.900 136.965  54.620  0.00  0.00    -0.505 OA
ATOM     38  H   UNL     1      96.138 136.363  54.618  0.00  0.00    +0.292 HD
ENDBRANCH  34  37
ENDBRANCH  30  31
BRANCH  30  39
ATOM     39  O   UNL     1     101.638 133.546  56.966  0.00  0.00    -0.385 OA
ATOM     40  H   UNL     1     102.558 133.511  57.303  0.00  0.00    +0.210 HD
ENDBRANCH  30  39
ENDBRANCH  29  30
ENDBRANCH  24  29
ENDBRANCH  20  24
ENDBRANCH   1  22
BRANCH   1  41
ATOM     41  C   UNL     1      98.832 137.975  62.138  0.00  0.00    +0.328 C 
ATOM     42  O   UNL     1      99.804 137.978  62.879  0.00  0.00    -0.249 OA
BRANCH  41  43
ATOM     43  OXT UNL     1      97.566 138.116  62.600  0.00  0.00    -0.479 OA
ATOM     44  HXT UNL     1      96.924 138.106  61.861  0.00  0.00    +0.295 HD
ENDBRANCH  41  43
ENDBRANCH   1  41
TORSDOF 15
ENDMDL
MODEL 2
REMARK VINA RESULT:    -5.800     12.028     14.021
REMARK INTER + INTRA:         -11.831
REMARK INTER:                  -9.892
REMARK INTRA:                  -1.939
REMARK UNBOUND:                -1.963
REMARK  Name = 
REMARK  16 active torsions:
REMARK  status: ('A' for Active; 'I' for Inactive)
REMARK    1  A    between atoms: C_1  and  C_2
REMARK    2  A    between atoms: C_2  and  C_3
REMARK    3  A    between atoms: C_2  and  CA_12
REMARK    4  A    between atoms: C_3  and  C_4
REMARK    5  A    between atoms: C_3  and  O_11
REMARK    6  A    between atoms: C_7  and  O_10
REMARK    7  A    between atoms: CA_12  and  C_13
REMARK    8  A    between atoms: CA_12  and  N_35
REMARK    9  A    between atoms: N_15  and  CA_16
REMARK   10  A    between atoms: CA_16  and  C_17
REMARK   11  A    between atoms: CA_16  and  C_32
REMARK   12  A    between atoms: C_18  and  O_31
REMARK   13  A    between atoms: C_19  and  O_30
REMARK   14  A    between atoms: C_20  and  N_22
REMARK   15  A    between atoms: CA_24  and  C_28
REMARK   16  A    between atoms: C_32  and  OXT_34
REMARK                            x       y       z     vdW  Elec       q    Type
REMARK                         _______ _______ _______ _____ _____    ______ ____
ROOT
ATOM      1  CA  UNL     1      98.016 131.649  73.935  0.00  0.00    +0.213 C 
ENDROOT
BRANCH   1   2
ATOM      2  C   UNL     1      96.722 131.779  73.111  0.00  0.00    +0.183 C 
ATOM      3  C   UNL     1      96.899 131.935  71.597  0.00  0.00    +0.178 C 
ATOM      4  C   UNL     1      95.754 132.866  71.173  0.00  0.00    +0.195 C 
ATOM      5  C   UNL     1      94.937 133.077  72.458  0.00  0.00    +0.255 C 
ATOM      6  O   UNL     1      95.872 132.853  73.534  0.00  0.00    -0.345 OA
BRANCH   5   7
ATOM      7  N   UNL     1      93.782 132.216  72.625  0.00  0.00    -0.270 N 
ATOM      8  C   UNL     1      93.671 131.058  73.368  0.00  0.00    +0.122 A 
ATOM      9  CA  UNL     1      92.453 130.548  73.198  0.00  0.00    +0.099 A 
ATOM     10  N   UNL     1      91.740 131.362  72.354  0.00  0.00    -0.304 N 
ATOM     11  C   UNL     1      92.556 132.435  71.957  0.00  0.00    +0.329 A 
ATOM     12  O   UNL     1      92.246 133.327  71.191  0.00  0.00    -0.246 OA
ATOM     13  H   UNL     1      90.797 131.234  72.020  0.00  0.00    +0.171 HD
BRANCH   9  14
ATOM     14  C   UNL     1      91.954 129.301  73.804  0.00  0.00    +0.278 C 
ATOM     15  O   UNL     1      90.930 128.751  73.424  0.00  0.00    -0.294 OA
ENDBRANCH   9  14
ENDBRANCH   5   7
BRANCH   4  16
ATOM     16  O   UNL     1      95.014 132.387  70.054  0.00  0.00    -0.385 OA
ATOM     17  H   UNL     1      95.196 133.013  69.324  0.00  0.00    +0.210 HD
ENDBRANCH   4  16
BRANCH   3  18
ATOM     18  O   UNL     1      96.813 130.695  70.890  0.00  0.00    -0.386 OA
ATOM     19  H   UNL     1      95.883 130.510  70.640  0.00  0.00    +0.210 HD
ENDBRANCH   3  18
ENDBRANCH   1   2
BRANCH   1  22
ATOM     20  C   UNL     1     100.388 131.603  73.186  0.00  0.00    +0.231 C 
ATOM     21  O   UNL     1     100.653 132.617  73.821  0.00  0.00    -0.274 OA
ATOM     22  N   UNL     1      99.146 130.995  73.252  0.00  0.00    -0.299 N 
ATOM     23  H   UNL     1      98.951 130.237  72.607  0.00  0.00    +0.150 HD
BRANCH  20  24
ATOM     24  CA  UNL     1     101.450 130.844  72.347  0.00  0.00    +0.143 C 
BRANCH  24  25
ATOM     25  N   UNL     1     100.870 129.538  71.965  0.00  0.00    -0.320 NA
ATOM     26  H1  UNL     1     100.200 129.632  71.209  0.00  0.00    +0.119 HD
ATOM     27  H2  UNL     1     100.352 129.175  72.774  0.00  0.00    +0.119 HD
ENDBRANCH  24  25
BRANCH  24  29
ATOM     28  C   UNL     1     102.670 130.682  70.140  0.00  0.00    +0.012 C 
ATOM     29  C   UNL     1     101.938 131.635  71.106  0.00  0.00    +0.046 C 
BRANCH  29  30
ATOM     30  C   UNL     1     100.752 132.346  70.399  0.00  0.00    +0.168 C 
BRANCH  30  31
ATOM     31  C   UNL     1     101.189 133.613  69.673  0.00  0.00    +0.070 A 
ATOM     32  N   UNL     1     101.392 134.716  70.448  0.00  0.00    -0.254 NA
ATOM     33  C   UNL     1     101.721 135.867  69.815  0.00  0.00    +0.156 A 
ATOM     34  C   UNL     1     101.863 135.970  68.441  0.00  0.00    +0.135 A 
ATOM     35  C   UNL     1     101.670 134.837  67.666  0.00  0.00    +0.049 A 
ATOM     36  C   UNL     1     101.329 133.636  68.287  0.00  0.00    +0.029 A 
BRANCH  34  37
ATOM     37  O   UNL     1     102.184 137.134  67.813  0.00  0.00    -0.505 OA
ATOM     38  H   UNL     1     102.276 136.970  66.859  0.00  0.00    +0.292 HD
ENDBRANCH  34  37
ENDBRANCH  30  31
BRANCH  30  39
ATOM     39  O   UNL     1     100.158 131.442  69.456  0.00  0.00    -0.385 OA
ATOM     40  H   UNL     1     100.893 131.170  68.867  0.00  0.00    +0.210 HD
ENDBRANCH  30  39
ENDBRANCH  29  30
ENDBRANCH  24  29
ENDBRANCH  20  24
ENDBRANCH   1  22
BRANCH   1  41
ATOM     41  C   UNL     1      97.692 130.897  75.230  0.00  0.00    +0.328 C 
ATOM     42  O   UNL     1      98.377 130.937  76.242  0.00  0.00    -0.249 OA
BRANCH  41  43
ATOM     43  OXT UNL     1      96.566 130.149  75.145  0.00  0.00    -0.479 OA
ATOM     44  HXT UNL     1      96.762 129.207  75.328  0.00  0.00    +0.295 HD
ENDBRANCH  41  43
ENDBRANCH   1  41
TORSDOF 15
ENDMDL
MODEL 3
REMARK VINA RESULT:    -5.665      1.949      7.891
REMARK INTER + INTRA:         -11.602
REMARK INTER:                  -9.426
REMARK INTRA:                  -2.176
REMARK UNBOUND:                -1.963
REMARK  Name = 
REMARK  16 active torsions:
REMARK  status: ('A' for Active; 'I' for Inactive)
REMARK    1  A    between atoms: C_1  and  C_2
REMARK    2  A    between atoms: C_2  and  C_3
REMARK    3  A    between atoms: C_2  and  CA_12
REMARK    4  A    between atoms: C_3  and  C_4
REMARK    5  A    between atoms: C_3  and  O_11
REMARK    6  A    between atoms: C_7  and  O_10
REMARK    7  A    between atoms: CA_12  and  C_13
REMARK    8  A    between atoms: CA_12  and  N_35
REMARK    9  A    between atoms: N_15  and  CA_16
REMARK   10  A    between atoms: CA_16  and  C_17
REMARK   11  A    between atoms: CA_16  and  C_32
REMARK   12  A    between atoms: C_18  and  O_31
REMARK   13  A    between atoms: C_19  and  O_30
REMARK   14  A    between atoms: C_20  and  N_22
REMARK   15  A    between atoms: CA_24  and  C_28
REMARK   16  A    between atoms: C_32  and  OXT_34
REMARK                            x       y       z     vdW  Elec       q    Type
REMARK                         _______ _______ _______ _____ _____    ______ ____
ROOT
ATOM      1  CA  UNL     1      94.887 137.760  58.709  0.00  0.00    +0.213 C 
ENDROOT
BRANCH   1   2
ATOM      2  C   UNL     1      96.355 137.311  58.817  0.00  0.00    +0.183 C 
ATOM      3  C   UNL     1      96.813 136.826  60.196  0.00  0.00    +0.178 C 
ATOM      4  C   UNL     1      98.275 137.282  60.296  0.00  0.00    +0.195 C 
ATOM      5  C   UNL     1      98.580 137.891  58.917  0.00  0.00    +0.255 C 
ATOM      6  O   UNL     1      97.297 138.307  58.402  0.00  0.00    -0.345 OA
BRANCH   5   7
ATOM      7  N   UNL     1      99.228 137.010  57.964  0.00  0.00    -0.270 N 
ATOM      8  C   UNL     1      98.657 136.277  56.943  0.00  0.00    +0.122 A 
ATOM      9  CA  UNL     1      99.603 135.556  56.345  0.00  0.00    +0.099 A 
ATOM     10  N   UNL     1     100.809 135.808  56.950  0.00  0.00    -0.304 N 
ATOM     11  C   UNL     1     100.611 136.726  57.996  0.00  0.00    +0.329 A 
ATOM     12  O   UNL     1     101.465 137.144  58.754  0.00  0.00    -0.246 OA
ATOM     13  H   UNL     1     101.706 135.401  56.736  0.00  0.00    +0.171 HD
BRANCH   9  14
ATOM     14  C   UNL     1      99.390 134.623  55.224  0.00  0.00    +0.278 C 
ATOM     15  O   UNL     1     100.152 133.697  54.987  0.00  0.00    -0.294 OA
ENDBRANCH   9  14
ENDBRANCH   5   7
BRANCH   4  16
ATOM     16  O   UNL     1      99.167 136.254  60.717  0.00  0.00    -0.385 OA
ATOM     17  H   UNL     1      98.613 135.591  61.177  0.00  0.00    +0.210 HD
ENDBRANCH   4  16
BRANCH   3  18
ATOM     18  O   UNL     1      96.729 135.406  60.349  0.00  0.00    -0.386 OA
ATOM     19  H   UNL     1      97.556 134.981  60.038  0.00  0.00    +0.210 HD
ENDBRANCH   3  18
ENDBRANCH   1   2
BRANCH   1  22
ATOM     20  C   UNL     1      93.893 139.631  60.014  0.00  0.00    +0.231 C 
ATOM     21  O   UNL     1      93.856 140.357  59.027  0.00  0.00    -0.274 OA
ATOM     22  N   UNL     1      94.293 138.308  59.942  0.00  0.00    -0.299 N 
ATOM     23  H   UNL     1      94.423 137.800  60.810  0.00  0.00    +0.150 HD
BRANCH  20  24
ATOM     24  CA  UNL     1      93.383 140.091  61.405  0.00  0.00    +0.143 C 
BRANCH  24  25
ATOM     25  N   UNL     1      92.662 138.952  62.017  0.00  0.00    -0.320 NA
ATOM     26  H1  UNL     1      91.998 139.262  62.718  0.00  0.00    +0.119 HD
ATOM     27  H2  UNL     1      93.352 138.369  62.503  0.00  0.00    +0.119 HD
ENDBRANCH  24  25
BRANCH  24  29
ATOM     28  C   UNL     1      93.981 141.805  63.163  0.00  0.00    +0.012 C 
ATOM     29  C   UNL     1      94.508 140.618  62.333  0.00  0.00    +0.046 C 
BRANCH  29  30
ATOM     30  C   UNL     1      95.044 139.487  63.253  0.00  0.00    +0.168 C 
BRANCH  30  31
ATOM     31  C   UNL     1      96.568 139.435  63.275  0.00  0.00    +0.070 A 
ATOM     32  N   UNL     1      97.216 140.315  62.459  0.00  0.00    -0.254 NA
ATOM     33  C   UNL     1      98.567 140.243  62.419  0.00  0.00    +0.156 A 
ATOM     34  C   UNL     1      99.307 139.336  63.159  0.00  0.00    +0.135 A 
ATOM     35  C   UNL     1      98.636 138.458  63.996  0.00  0.00    +0.049 A 
ATOM     36  C   UNL     1      97.245 138.505  64.061  0.00  0.00    +0.029 A 
BRANCH  34  37
ATOM     37  O   UNL     1     100.665 139.264  63.104  0.00  0.00    -0.505 OA
ATOM     38  H   UNL     1     101.012 139.052  63.986  0.00  0.00    +0.292 HD
ENDBRANCH  34  37
ENDBRANCH  30  31
BRANCH  30  39
ATOM     39  O   UNL     1      94.559 139.696  64.587  0.00  0.00    -0.385 OA
ATOM     40  H   UNL     1      94.976 138.989  65.123  0.00  0.00    +0.210 HD
ENDBRANCH  30  39
ENDBRANCH  29  30
ENDBRANCH  24  29
ENDBRANCH  20  24
ENDBRANCH   1  22
BRANCH   1  41
ATOM     41  C   UNL     1      94.051 136.574  58.219  0.00  0.00    +0.328 C 
ATOM     42  O   UNL     1      92.833 136.582  58.113  0.00  0.00    -0.249 OA
BRANCH  41  43
ATOM     43  OXT UNL     1      94.797 135.481  57.927  0.00  0.00    -0.479 OA
ATOM     44  HXT UNL     1      94.223 134.711  57.735  0.00  0.00    +0.295 HD
ENDBRANCH  41  43
ENDBRANCH   1  41
TORSDOF 15
ENDMDL
MODEL 4
REMARK VINA RESULT:    -5.608     12.386     14.682
REMARK INTER + INTRA:         -11.505
REMARK INTER:                  -9.850
REMARK INTRA:                  -1.655
REMARK UNBOUND:                -1.963
REMARK  Name = 
REMARK  16 active torsions:
REMARK  status: ('A' for Active; 'I' for Inactive)
REMARK    1  A    between atoms: C_1  and  C_2
REMARK    2  A    between atoms: C_2  and  C_3
REMARK    3  A    between atoms: C_2  and  CA_12
REMARK    4  A    between atoms: C_3  and  C_4
REMARK    5  A    between atoms: C_3  and  O_11
REMARK    6  A    between atoms: C_7  and  O_10
REMARK    7  A    between atoms: CA_12  and  C_13
REMARK    8  A    between atoms: CA_12  and  N_35
REMARK    9  A    between atoms: N_15  and  CA_16
REMARK   10  A    between atoms: CA_16  and  C_17
REMARK   11  A    between atoms: CA_16  and  C_32
REMARK   12  A    between atoms: C_18  and  O_31
REMARK   13  A    between atoms: C_19  and  O_30
REMARK   14  A    between atoms: C_20  and  N_22
REMARK   15  A    between atoms: CA_24  and  C_28
REMARK   16  A    between atoms: C_32  and  OXT_34
REMARK                            x       y       z     vdW  Elec       q    Type
REMARK                         _______ _______ _______ _____ _____    ______ ____
ROOT
ATOM      1  CA  UNL     1     101.779 133.195  74.766  0.00  0.00    +0.213 C 
ENDROOT
BRANCH   1   2
ATOM      2  C   UNL     1     100.843 132.230  74.016  0.00  0.00    +0.183 C 
ATOM      3  C   UNL     1     101.423 130.852  73.681  0.00  0.00    +0.178 C 
ATOM      4  C   UNL     1     100.792 130.491  72.330  0.00  0.00    +0.195 C 
ATOM      5  C   UNL     1      99.806 131.637  72.049  0.00  0.00    +0.255 C 
ATOM      6  O   UNL     1     100.323 132.762  72.792  0.00  0.00    -0.345 OA
BRANCH   5   7
ATOM      7  N   UNL     1      98.426 131.394  72.425  0.00  0.00    -0.270 N 
ATOM      8  C   UNL     1      97.926 130.982  73.643  0.00  0.00    +0.122 A 
ATOM      9  CA  UNL     1      96.608 130.824  73.540  0.00  0.00    +0.099 A 
ATOM     10  N   UNL     1      96.217 131.138  72.263  0.00  0.00    -0.304 N 
ATOM     11  C   UNL     1      97.351 131.498  71.515  0.00  0.00    +0.329 A 
ATOM     12  O   UNL     1      97.366 131.808  70.339  0.00  0.00    -0.246 OA
ATOM     13  H   UNL     1      95.289 131.099  71.871  0.00  0.00    +0.171 HD
BRANCH   9  14
ATOM     14  C   UNL     1      95.711 130.368  74.618  0.00  0.00    +0.278 C 
ATOM     15  O   UNL     1      95.994 130.485  75.801  0.00  0.00    -0.294 OA
ENDBRANCH   9  14
ENDBRANCH   5   7
BRANCH   4  16
ATOM     16  O   UNL     1     100.229 129.182  72.294  0.00  0.00    -0.385 OA
ATOM     17  H   UNL     1      99.502 129.222  71.639  0.00  0.00    +0.210 HD
ENDBRANCH   4  16
BRANCH   3  18
ATOM     18  O   UNL     1     101.103 129.855  74.656  0.00  0.00    -0.386 OA
ATOM     19  H   UNL     1     101.885 129.662  75.214  0.00  0.00    +0.210 HD
ENDBRANCH   3  18
ENDBRANCH   1   2
BRANCH   1  22
ATOM     20  C   UNL     1     103.453 134.261  73.265  0.00  0.00    +0.231 C 
ATOM     21  O   UNL     1     102.667 135.145  72.944  0.00  0.00    -0.274 OA
ATOM     22  N   UNL     1     103.145 133.312  74.225  0.00  0.00    -0.299 N 
ATOM     23  H   UNL     1     103.785 132.536  74.352  0.00  0.00    +0.150 HD
BRANCH  20  24
ATOM     24  CA  UNL     1     104.903 134.196  72.716  0.00  0.00    +0.143 C 
BRANCH  24  25
ATOM     25  N   UNL     1     105.780 133.745  73.819  0.00  0.00    -0.320 NA
ATOM     26  H1  UNL     1     105.399 133.991  74.726  0.00  0.00    +0.119 HD
ATOM     27  H2  UNL     1     106.675 134.240  73.731  0.00  0.00    +0.119 HD
ENDBRANCH  24  25
BRANCH  24  29
ATOM     28  C   UNL     1     106.150 132.241  71.713  0.00  0.00    +0.012 C 
ATOM     29  C   UNL     1     105.050 133.293  71.465  0.00  0.00    +0.046 C 
BRANCH  29  30
ATOM     30  C   UNL     1     103.698 132.614  71.108  0.00  0.00    +0.168 C 
BRANCH  30  31
ATOM     31  C   UNL     1     103.044 133.243  69.883  0.00  0.00    +0.070 A 
ATOM     32  N   UNL     1     103.705 134.289  69.312  0.00  0.00    -0.254 NA
ATOM     33  C   UNL     1     103.110 134.900  68.260  0.00  0.00    +0.156 A 
ATOM     34  C   UNL     1     101.884 134.512  67.745  0.00  0.00    +0.135 A 
ATOM     35  C   UNL     1     101.230 133.436  68.324  0.00  0.00    +0.049 A 
ATOM     36  C   UNL     1     101.816 132.786  69.410  0.00  0.00    +0.029 A 
BRANCH  34  37
ATOM     37  O   UNL     1     101.289 135.139  66.694  0.00  0.00    -0.505 OA
ATOM     38  H   UNL     1     101.040 134.480  66.025  0.00  0.00    +0.292 HD
ENDBRANCH  34  37
ENDBRANCH  30  31
BRANCH  30  39
ATOM     39  O   UNL     1     103.924 131.219  70.861  0.00  0.00    -0.385 OA
ATOM     40  H   UNL     1     103.232 130.961  70.215  0.00  0.00    +0.210 HD
ENDBRANCH  30  39
ENDBRANCH  29  30
ENDBRANCH  24  29
ENDBRANCH  20  24
ENDBRANCH   1  22
BRANCH   1  41
ATOM     41  C   UNL     1     101.842 132.767  76.235  0.00  0.00    +0.328 C 
ATOM     42  O   UNL     1     102.798 132.960  76.971  0.00  0.00    -0.249 OA
BRANCH  41  43
ATOM     43  OXT UNL     1     100.726 132.119  76.650  0.00  0.00    -0.479 OA
ATOM     44  HXT UNL     1     100.946 131.456  77.336  0.00  0.00    +0.295 HD
ENDBRANCH  41  43
ENDBRANCH   1  41
TORSDOF 15
ENDMDL
MODEL 5
REMARK VINA RESULT:    -5.564      1.622      2.022
REMARK INTER + INTRA:         -11.430
REMARK INTER:                  -9.758
REMARK INTRA:                  -1.672
REMARK UNBOUND:                -1.963
REMARK  Name = 
REMARK  16 active torsions:
REMARK  status: ('A' for Active; 'I' for Inactive)
REMARK    1  A    between atoms: C_1  and  C_2
REMARK    2  A    between atoms: C_2  and  C_3
REMARK    3  A    between atoms: C_2  and  CA_12
REMARK    4  A    between atoms: C_3  and  C_4
REMARK    5  A    between atoms: C_3  and  O_11
REMARK    6  A    between atoms: C_7  and  O_10
REMARK    7  A    between atoms: CA_12  and  C_13
REMARK    8  A    between atoms: CA_12  and  N_35
REMARK    9  A    between atoms: N_15  and  CA_16
REMARK   10  A    between atoms: CA_16  and  C_17
REMARK   11  A    between atoms: CA_16  and  C_32
REMARK   12  A    between atoms: C_18  and  O_31
REMARK   13  A    between atoms: C_19  and  O_30
REMARK   14  A    between atoms: C_20  and  N_22
REMARK   15  A    between atoms: CA_24  and  C_28
REMARK   16  A    between atoms: C_32  and  OXT_34
REMARK                            x       y       z     vdW  Elec       q    Type
REMARK                         _______ _______ _______ _____ _____    ______ ____
ROOT
ATOM      1  CA  UNL     1      99.279 137.302  59.758  0.00  0.00    +0.213 C 
ENDROOT
BRANCH   1   2
ATOM      2  C   UNL     1      97.752 137.237  59.576  0.00  0.00    +0.183 C 
ATOM      3  C   UNL     1      97.185 135.891  59.113  0.00  0.00    +0.178 C 
ATOM      4  C   UNL     1      95.998 136.265  58.215  0.00  0.00    +0.195 C 
ATOM      5  C   UNL     1      95.901 137.795  58.327  0.00  0.00    +0.255 C 
ATOM      6  O   UNL     1      97.233 138.227  58.680  0.00  0.00    -0.345 OA
BRANCH   5   7
ATOM      7  N   UNL     1      94.949 138.303  59.296  0.00  0.00    -0.270 N 
ATOM      8  C   UNL     1      95.189 138.795  60.563  0.00  0.00    +0.122 A 
ATOM      9  CA  UNL     1      94.027 139.099  61.138  0.00  0.00    +0.099 A 
ATOM     10  N   UNL     1      93.008 138.824  60.262  0.00  0.00    -0.304 N 
ATOM     11  C   UNL     1      93.554 138.304  59.075  0.00  0.00    +0.329 A 
ATOM     12  O   UNL     1      92.928 137.931  58.102  0.00  0.00    -0.246 OA
ATOM     13  H   UNL     1      92.016 138.929  60.412  0.00  0.00    +0.171 HD
BRANCH   9  14
ATOM     14  C   UNL     1      93.859 139.629  62.503  0.00  0.00    +0.278 C 
ATOM     15  O   UNL     1      94.762 139.621  63.327  0.00  0.00    -0.294 OA
ENDBRANCH   9  14
ENDBRANCH   5   7
BRANCH   4  16
ATOM     16  O   UNL     1      94.801 135.556  58.526  0.00  0.00    -0.385 OA
ATOM     17  H   UNL     1      94.151 135.815  57.841  0.00  0.00    +0.210 HD
ENDBRANCH   4  16
BRANCH   3  18
ATOM     18  O   UNL     1      96.743 135.065  60.195  0.00  0.00    -0.386 OA
ATOM     19  H   UNL     1      95.769 134.958  60.165  0.00  0.00    +0.210 HD
ENDBRANCH   3  18
ENDBRANCH   1   2
BRANCH   1  22
ATOM     20  C   UNL     1     100.457 136.527  57.709  0.00  0.00    +0.231 C 
ATOM     21  O   UNL     1     100.336 137.622  57.172  0.00  0.00    -0.274 OA
ATOM     22  N   UNL     1     100.056 136.296  59.014  0.00  0.00    -0.299 N 
ATOM     23  H   UNL     1     100.066 135.341  59.355  0.00  0.00    +0.150 HD
BRANCH  20  24
ATOM     24  CA  UNL     1     101.177 135.337  57.020  0.00  0.00    +0.143 C 
BRANCH  24  25
ATOM     25  N   UNL     1     101.710 134.459  58.085  0.00  0.00    -0.320 NA
ATOM     26  H1  UNL     1     101.134 134.489  58.919  0.00  0.00    +0.119 HD
ATOM     27  H2  UNL     1     102.635 134.815  58.353  0.00  0.00    +0.119 HD
ENDBRANCH  24  25
BRANCH  24  29
ATOM     28  C   UNL     1     100.518 133.040  56.199  0.00  0.00    +0.012 C 
ATOM     29  C   UNL     1     100.272 134.553  56.036  0.00  0.00    +0.046 C 
BRANCH  29  30
ATOM     30  C   UNL     1      98.775 134.904  56.259  0.00  0.00    +0.168 C 
BRANCH  30  31
ATOM     31  C   UNL     1      98.121 135.466  55.001  0.00  0.00    +0.070 A 
ATOM     32  N   UNL     1      97.620 136.730  55.092  0.00  0.00    -0.254 NA
ATOM     33  C   UNL     1      96.981 137.223  54.005  0.00  0.00    +0.156 A 
ATOM     34  C   UNL     1      96.822 136.516  52.825  0.00  0.00    +0.135 A 
ATOM     35  C   UNL     1      97.351 135.238  52.741  0.00  0.00    +0.049 A 
ATOM     36  C   UNL     1      98.014 134.699  53.842  0.00  0.00    +0.029 A 
BRANCH  34  37
ATOM     37  O   UNL     1      96.169 137.017  51.741  0.00  0.00    -0.505 OA
ATOM     38  H   UNL     1      96.707 136.872  50.945  0.00  0.00    +0.292 HD
ENDBRANCH  34  37
ENDBRANCH  30  31
BRANCH  30  39
ATOM     39  O   UNL     1      98.072 133.723  56.670  0.00  0.00    -0.385 OA
ATOM     40  H   UNL     1      98.249 133.064  55.965  0.00  0.00    +0.210 HD
ENDBRANCH  30  39
ENDBRANCH  29  30
ENDBRANCH  24  29
ENDBRANCH  20  24
ENDBRANCH   1  22
BRANCH   1  41
ATOM     41  C   UNL     1      99.594 137.194  61.253  0.00  0.00    +0.328 C 
ATOM     42  O   UNL     1     100.615 136.702  61.711  0.00  0.00    -0.249 OA
BRANCH  41  43
ATOM     43  OXT UNL     1      98.606 137.681  62.043  0.00  0.00    -0.479 OA
ATOM     44  HXT UNL     1      97.944 136.986  62.238  0.00  0.00    +0.295 HD
ENDBRANCH  41  43
ENDBRANCH   1  41
TORSDOF 15
ENDMDL
MODEL 6
REMARK VINA RESULT:    -5.299     12.622     14.873
REMARK INTER + INTRA:         -10.980
REMARK INTER:                  -8.270
REMARK INTRA:                  -2.709
REMARK UNBOUND:                -1.963
REMARK  Name = 
REMARK  16 active torsions:
REMARK  status: ('A' for Active; 'I' for Inactive)
REMARK    1  A    between atoms: C_1  and  C_2
REMARK    2  A    between atoms: C_2  and  C_3
REMARK    3  A    between atoms: C_2  and  CA_12
REMARK    4  A    between atoms: C_3  and  C_4
REMARK    5  A    between atoms: C_3  and  O_11
REMARK    6  A    between atoms: C_7  and  O_10
REMARK    7  A    between atoms: CA_12  and  C_13
REMARK    8  A    between atoms: CA_12  and  N_35
REMARK    9  A    between atoms: N_15  and  CA_16
REMARK   10  A    between atoms: CA_16  and  C_17
REMARK   11  A    between atoms: CA_16  and  C_32
REMARK   12  A    between atoms: C_18  and  O_31
REMARK   13  A    between atoms: C_19  and  O_30
REMARK   14  A    between atoms: C_20  and  N_22
REMARK   15  A    between atoms: CA_24  and  C_28
REMARK   16  A    between atoms: C_32  and  OXT_34
REMARK                            x       y       z     vdW  Elec       q    Type
REMARK                         _______ _______ _______ _____ _____    ______ ____
ROOT
ATOM      1  CA  UNL     1      97.297 134.176  72.431  0.00  0.00    +0.213 C 
ENDROOT
BRANCH   1   2
ATOM      2  C   UNL     1      95.995 133.410  72.137  0.00  0.00    +0.183 C 
ATOM      3  C   UNL     1      95.787 132.964  70.686  0.00  0.00    +0.178 C 
ATOM      4  C   UNL     1      94.273 133.076  70.464  0.00  0.00    +0.195 C 
ATOM      5  C   UNL     1      93.713 133.463  71.843  0.00  0.00    +0.255 C 
ATOM      6  O   UNL     1      94.808 134.116  72.519  0.00  0.00    -0.345 OA
BRANCH   5   7
ATOM      7  N   UNL     1      93.216 132.371  72.657  0.00  0.00    -0.270 N 
ATOM      8  C   UNL     1      93.922 131.329  73.224  0.00  0.00    +0.122 A 
ATOM      9  CA  UNL     1      93.072 130.513  73.843  0.00  0.00    +0.099 A 
ATOM     10  N   UNL     1      91.798 131.005  73.705  0.00  0.00    -0.304 N 
ATOM     11  C   UNL     1      91.845 132.187  72.945  0.00  0.00    +0.329 A 
ATOM     12  O   UNL     1      90.892 132.865  72.613  0.00  0.00    -0.246 OA
ATOM     13  H   UNL     1      90.938 130.603  74.045  0.00  0.00    +0.171 HD
BRANCH   9  14
ATOM     14  C   UNL     1      93.434 129.271  74.548  0.00  0.00    +0.278 C 
ATOM     15  O   UNL     1      94.354 129.216  75.351  0.00  0.00    -0.294 OA
ENDBRANCH   9  14
ENDBRANCH   5   7
BRANCH   4  16
ATOM     16  O   UNL     1      93.694 131.913  69.879  0.00  0.00    -0.385 OA
ATOM     17  H   UNL     1      92.889 132.220  69.412  0.00  0.00    +0.210 HD
ENDBRANCH   4  16
BRANCH   3  18
ATOM     18  O   UNL     1      96.223 131.624  70.441  0.00  0.00    -0.386 OA
ATOM     19  H   UNL     1      97.122 131.624  70.051  0.00  0.00    +0.210 HD
ENDBRANCH   3  18
ENDBRANCH   1   2
BRANCH   1  22
ATOM     20  C   UNL     1      99.649 134.299  71.630  0.00  0.00    +0.231 C 
ATOM     21  O   UNL     1      99.719 135.496  71.884  0.00  0.00    -0.274 OA
ATOM     22  N   UNL     1      98.536 133.540  71.950  0.00  0.00    -0.299 N 
ATOM     23  H   UNL     1      98.490 132.589  71.600  0.00  0.00    +0.150 HD
BRANCH  20  24
ATOM     24  CA  UNL     1     100.843 133.503  71.039  0.00  0.00    +0.143 C 
BRANCH  24  25
ATOM     25  N   UNL     1     101.972 133.618  71.989  0.00  0.00    -0.320 NA
ATOM     26  H1  UNL     1     102.579 134.396  71.757  0.00  0.00    +0.119 HD
ATOM     27  H2  UNL     1     102.540 132.767  71.907  0.00  0.00    +0.119 HD
ENDBRANCH  24  25
BRANCH  24  29
ATOM     28  C   UNL     1     101.078 131.634  69.354  0.00  0.00    +0.012 C 
ATOM     29  C   UNL     1     100.506 132.021  70.733  0.00  0.00    +0.046 C 
BRANCH  29  30
ATOM     30  C   UNL     1     101.051 131.086  71.847  0.00  0.00    +0.168 C 
BRANCH  30  31
ATOM     31  C   UNL     1      99.989 130.746  72.886  0.00  0.00    +0.070 A 
ATOM     32  N   UNL     1      98.707 130.645  72.433  0.00  0.00    -0.254 NA
ATOM     33  C   UNL     1      97.742 130.406  73.350  0.00  0.00    +0.156 A 
ATOM     34  C   UNL     1      97.993 130.256  74.704  0.00  0.00    +0.135 A 
ATOM     35  C   UNL     1      99.303 130.345  75.150  0.00  0.00    +0.049 A 
ATOM     36  C   UNL     1     100.322 130.592  74.231  0.00  0.00    +0.029 A 
BRANCH  34  37
ATOM     37  O   UNL     1      97.014 130.025  75.621  0.00  0.00    -0.505 OA
ATOM     38  H   UNL     1      96.567 129.188  75.411  0.00  0.00    +0.292 HD
ENDBRANCH  34  37
ENDBRANCH  30  31
BRANCH  30  39
ATOM     39  O   UNL     1     101.532 129.873  71.248  0.00  0.00    -0.385 OA
ATOM     40  H   UNL     1     102.191 130.162  70.583  0.00  0.00    +0.210 HD
ENDBRANCH  30  39
ENDBRANCH  29  30
ENDBRANCH  24  29
ENDBRANCH  20  24
ENDBRANCH   1  22
BRANCH   1  41
ATOM     41  C   UNL     1      97.392 134.409  73.942  0.00  0.00    +0.328 C 
ATOM     42  O   UNL     1      98.058 133.727  74.707  0.00  0.00    -0.249 OA
BRANCH  41  43
ATOM     43  OXT UNL     1      96.635 135.449  74.369  0.00  0.00    -0.479 OA
ATOM     44  HXT UNL     1      95.719 135.157  74.556  0.00  0.00    +0.295 HD
ENDBRANCH  41  43
ENDBRANCH   1  41
TORSDOF 15
ENDMDL
MODEL 7
REMARK VINA RESULT:    -5.291      2.044      8.282
REMARK INTER + INTRA:         -10.966
REMARK INTER:                  -9.243
REMARK INTRA:                  -1.722
REMARK UNBOUND:                -1.963
REMARK  Name = 
REMARK  16 active torsions:
REMARK  status: ('A' for Active; 'I' for Inactive)
REMARK    1  A    between atoms: C_1  and  C_2
REMARK    2  A    between atoms: C_2  and  C_3
REMARK    3  A    between atoms: C_2  and  CA_12
REMARK    4  A    between atoms: C_3  and  C_4
REMARK    5  A    between atoms: C_3  and  O_11
REMARK    6  A    between atoms: C_7  and  O_10
REMARK    7  A    between atoms: CA_12  and  C_13
REMARK    8  A    between atoms: CA_12  and  N_35
REMARK    9  A    between atoms: N_15  and  CA_16
REMARK   10  A    between atoms: CA_16  and  C_17
REMARK   11  A    between atoms: CA_16  and  C_32
REMARK   12  A    between atoms: C_18  and  O_31
REMARK   13  A    between atoms: C_19  and  O_30
REMARK   14  A    between atoms: C_20  and  N_22
REMARK   15  A    between atoms: CA_24  and  C_28
REMARK   16  A    between atoms: C_32  and  OXT_34
REMARK                            x       y       z     vdW  Elec       q    Type
REMARK                         _______ _______ _______ _____ _____    ______ ____
ROOT
ATOM      1  CA  UNL     1      95.522 138.690  57.196  0.00  0.00    +0.213 C 
ENDROOT
BRANCH   1   2
ATOM      2  C   UNL     1      96.368 137.586  57.856  0.00  0.00    +0.183 C 
ATOM      3  C   UNL     1      95.632 136.668  58.837  0.00  0.00    +0.178 C 
ATOM      4  C   UNL     1      96.676 136.344  59.914  0.00  0.00    +0.195 C 
ATOM      5  C   UNL     1      97.968 137.005  59.405  0.00  0.00    +0.255 C 
ATOM      6  O   UNL     1      97.523 138.078  58.547  0.00  0.00    -0.345 OA
BRANCH   5   7
ATOM      7  N   UNL     1      98.880 136.143  58.679  0.00  0.00    -0.270 N 
ATOM      8  C   UNL     1      98.658 135.447  57.508  0.00  0.00    +0.122 A 
ATOM      9  CA  UNL     1      99.741 134.729  57.218  0.00  0.00    +0.099 A 
ATOM     10  N   UNL     1     100.694 134.946  58.181  0.00  0.00    -0.304 N 
ATOM     11  C   UNL     1     100.180 135.837  59.139  0.00  0.00    +0.329 A 
ATOM     12  O   UNL     1     100.752 136.222  60.140  0.00  0.00    -0.246 OA
ATOM     13  H   UNL     1     101.612 134.533  58.250  0.00  0.00    +0.171 HD
BRANCH   9  14
ATOM     14  C   UNL     1      99.890 133.830  56.059  0.00  0.00    +0.278 C 
ATOM     15  O   UNL     1      99.520 134.140  54.936  0.00  0.00    -0.294 OA
ENDBRANCH   9  14
ENDBRANCH   5   7
BRANCH   4  16
ATOM     16  O   UNL     1      96.781 134.954  60.208  0.00  0.00    -0.385 OA
ATOM     17  H   UNL     1      96.847 134.501  59.342  0.00  0.00    +0.210 HD
ENDBRANCH   4  16
BRANCH   3  18
ATOM     18  O   UNL     1      95.159 135.462  58.231  0.00  0.00    -0.386 OA
ATOM     19  H   UNL     1      94.180 135.470  58.176  0.00  0.00    +0.210 HD
ENDBRANCH   3  18
ENDBRANCH   1   2
BRANCH   1  22
ATOM     20  C   UNL     1      94.089 140.097  58.665  0.00  0.00    +0.231 C 
ATOM     21  O   UNL     1      94.952 140.963  58.751  0.00  0.00    -0.274 OA
ATOM     22  N   UNL     1      94.235 138.987  57.849  0.00  0.00    -0.299 N 
ATOM     23  H   UNL     1      93.544 138.248  57.920  0.00  0.00    +0.150 HD
BRANCH  20  24
ATOM     24  CA  UNL     1      92.710 140.223  59.365  0.00  0.00    +0.143 C 
BRANCH  24  25
ATOM     25  N   UNL     1      92.003 138.934  59.198  0.00  0.00    -0.320 NA
ATOM     26  H1  UNL     1      90.997 139.047  59.264  0.00  0.00    +0.119 HD
ATOM     27  H2  UNL     1      92.281 138.320  59.971  0.00  0.00    +0.119 HD
ENDBRANCH  24  25
BRANCH  24  29
ATOM     28  C   UNL     1      91.543 141.404  61.270  0.00  0.00    +0.012 C 
ATOM     29  C   UNL     1      92.810 140.628  60.858  0.00  0.00    +0.046 C 
BRANCH  29  30
ATOM     30  C   UNL     1      93.018 139.380  61.759  0.00  0.00    +0.168 C 
BRANCH  30  31
ATOM     31  C   UNL     1      94.305 139.465  62.573  0.00  0.00    +0.070 A 
ATOM     32  N   UNL     1      95.410 138.890  62.020  0.00  0.00    -0.254 NA
ATOM     33  C   UNL     1      96.548 138.901  62.755  0.00  0.00    +0.156 A 
ATOM     34  C   UNL     1      96.638 139.464  64.017  0.00  0.00    +0.135 A 
ATOM     35  C   UNL     1      95.510 140.060  64.560  0.00  0.00    +0.049 A 
ATOM     36  C   UNL     1      94.322 140.065  63.830  0.00  0.00    +0.029 A 
BRANCH  34  37
ATOM     37  O   UNL     1      97.783 139.461  64.752  0.00  0.00    -0.505 OA
ATOM     38  H   UNL     1      98.536 139.675  64.176  0.00  0.00    +0.292 HD
ENDBRANCH  34  37
ENDBRANCH  30  31
BRANCH  30  39
ATOM     39  O   UNL     1      91.902 139.253  62.651  0.00  0.00    -0.385 OA
ATOM     40  H   UNL     1      92.272 138.847  63.464  0.00  0.00    +0.210 HD
ENDBRANCH  30  39
ENDBRANCH  29  30
ENDBRANCH  24  29
ENDBRANCH  20  24
ENDBRANCH   1  22
BRANCH   1  41
ATOM     41  C   UNL     1      95.280 138.306  55.733  0.00  0.00    +0.328 C 
ATOM     42  O   UNL     1      96.123 137.810  55.000  0.00  0.00    -0.249 OA
BRANCH  41  43
ATOM     43  OXT UNL     1      94.026 138.593  55.307  0.00  0.00    -0.479 OA
ATOM     44  HXT UNL     1      93.382 138.500  56.039  0.00  0.00    +0.295 HD
ENDBRANCH  41  43
ENDBRANCH   1  41
TORSDOF 15
ENDMDL
MODEL 8
REMARK VINA RESULT:    -5.187      2.359      7.107
REMARK INTER + INTRA:         -10.788
REMARK INTER:                  -8.060
REMARK INTRA:                  -2.728
REMARK UNBOUND:                -1.963
REMARK  Name = 
REMARK  16 active torsions:
REMARK  status: ('A' for Active; 'I' for Inactive)
REMARK    1  A    between atoms: C_1  and  C_2
REMARK    2  A    between atoms: C_2  and  C_3
REMARK    3  A    between atoms: C_2  and  CA_12
REMARK    4  A    between atoms: C_3  and  C_4
REMARK    5  A    between atoms: C_3  and  O_11
REMARK    6  A    between atoms: C_7  and  O_10
REMARK    7  A    between atoms: CA_12  and  C_13
REMARK    8  A    between atoms: CA_12  and  N_35
REMARK    9  A    between atoms: N_15  and  CA_16
REMARK   10  A    between atoms: CA_16  and  C_17
REMARK   11  A    between atoms: CA_16  and  C_32
REMARK   12  A    between atoms: C_18  and  O_31
REMARK   13  A    between atoms: C_19  and  O_30
REMARK   14  A    between atoms: C_20  and  N_22
REMARK   15  A    between atoms: CA_24  and  C_28
REMARK   16  A    between atoms: C_32  and  OXT_34
REMARK                            x       y       z     vdW  Elec       q    Type
REMARK                         _______ _______ _______ _____ _____    ______ ____
ROOT
ATOM      1  CA  UNL     1      99.369 139.550  59.342  0.00  0.00    +0.213 C 
ENDROOT
BRANCH   1   2
ATOM      2  C   UNL     1     100.080 138.187  59.421  0.00  0.00    +0.183 C 
ATOM      3  C   UNL     1     100.278 137.609  60.826  0.00  0.00    +0.178 C 
ATOM      4  C   UNL     1     101.623 136.875  60.751  0.00  0.00    +0.195 C 
ATOM      5  C   UNL     1     102.039 136.987  59.275  0.00  0.00    +0.255 C 
ATOM      6  O   UNL     1     101.365 138.168  58.788  0.00  0.00    -0.345 OA
BRANCH   5   7
ATOM      7  N   UNL     1     101.708 135.853  58.434  0.00  0.00    -0.270 N 
ATOM      8  C   UNL     1     100.479 135.494  57.917  0.00  0.00    +0.122 A 
ATOM      9  CA  UNL     1     100.607 134.350  57.247  0.00  0.00    +0.099 A 
ATOM     10  N   UNL     1     101.917 133.943  57.302  0.00  0.00    -0.304 N 
ATOM     11  C   UNL     1     102.652 134.871  58.059  0.00  0.00    +0.329 A 
ATOM     12  O   UNL     1     103.836 134.801  58.327  0.00  0.00    -0.246 OA
ATOM     13  H   UNL     1     102.323 133.108  56.908  0.00  0.00    +0.171 HD
BRANCH   9  14
ATOM     14  C   UNL     1      99.517 133.625  56.570  0.00  0.00    +0.278 C 
ATOM     15  O   UNL     1      98.372 134.053  56.527  0.00  0.00    -0.294 OA
ENDBRANCH   9  14
ENDBRANCH   5   7
BRANCH   4  16
ATOM     16  O   UNL     1     101.581 135.549  61.271  0.00  0.00    -0.385 OA
ATOM     17  H   UNL     1     102.345 135.475  61.879  0.00  0.00    +0.210 HD
ENDBRANCH   4  16
BRANCH   3  18
ATOM     18  O   UNL     1      99.242 136.701  61.211  0.00  0.00    -0.386 OA
ATOM     19  H   UNL     1      98.412 136.908  60.732  0.00  0.00    +0.210 HD
ENDBRANCH   3  18
ENDBRANCH   1   2
BRANCH   1  22
ATOM     20  C   UNL     1      97.935 140.943  60.824  0.00  0.00    +0.231 C 
ATOM     21  O   UNL     1      98.528 141.968  60.506  0.00  0.00    -0.274 OA
ATOM     22  N   UNL     1      98.210 139.719  60.237  0.00  0.00    -0.299 N 
ATOM     23  H   UNL     1      97.777 138.892  60.633  0.00  0.00    +0.150 HD
BRANCH  20  24
ATOM     24  CA  UNL     1      96.746 140.944  61.821  0.00  0.00    +0.143 C 
BRANCH  24  25
ATOM     25  N   UNL     1      95.741 141.908  61.319  0.00  0.00    -0.320 NA
ATOM     26  H1  UNL     1      95.924 142.848  61.653  0.00  0.00    +0.119 HD
ATOM     27  H2  UNL     1      94.828 141.634  61.697  0.00  0.00    +0.119 HD
ENDBRANCH  24  25
BRANCH  24  29
ATOM     28  C   UNL     1      95.790 139.357  63.539  0.00  0.00    +0.012 C 
ATOM     29  C   UNL     1      96.127 139.541  62.046  0.00  0.00    +0.046 C 
BRANCH  29  30
ATOM     30  C   UNL     1      94.867 139.342  61.159  0.00  0.00    +0.168 C 
BRANCH  30  31
ATOM     31  C   UNL     1      95.058 138.237  60.126  0.00  0.00    +0.070 A 
ATOM     32  N   UNL     1      96.223 137.534  60.199  0.00  0.00    -0.254 NA
ATOM     33  C   UNL     1      96.438 136.590  59.252  0.00  0.00    +0.156 A 
ATOM     34  C   UNL     1      95.541 136.309  58.234  0.00  0.00    +0.135 A 
ATOM     35  C   UNL     1      94.353 137.021  58.182  0.00  0.00    +0.049 A 
ATOM     36  C   UNL     1      94.100 138.001  59.141  0.00  0.00    +0.029 A 
BRANCH  34  37
ATOM     37  O   UNL     1      95.771 135.366  57.281  0.00  0.00    -0.505 OA
ATOM     38  H   UNL     1      95.575 134.487  57.644  0.00  0.00    +0.292 HD
ENDBRANCH  34  37
ENDBRANCH  30  31
BRANCH  30  39
ATOM     39  O   UNL     1      93.749 139.016  61.998  0.00  0.00    -0.385 OA
ATOM     40  H   UNL     1      93.115 139.754  61.874  0.00  0.00    +0.210 HD
ENDBRANCH  30  39
ENDBRANCH  29  30
ENDBRANCH  24  29
ENDBRANCH  20  24
ENDBRANCH   1  22
BRANCH   1  41
ATOM     41  C   UNL     1      98.938 139.789  57.892  0.00  0.00    +0.328 C 
ATOM     42  O   UNL     1      97.807 139.604  57.467  0.00  0.00    -0.249 OA
BRANCH  41  43
ATOM     43  OXT UNL     1      99.952 140.213  57.098  0.00  0.00    -0.479 OA
ATOM     44  HXT UNL     1      99.627 140.403  56.194  0.00  0.00    +0.295 HD
ENDBRANCH  41  43
ENDBRANCH   1  41
TORSDOF 15
ENDMDL
MODEL 9
REMARK VINA RESULT:    -5.176     14.299     17.748
REMARK INTER + INTRA:         -10.771
REMARK INTER:                  -9.313
REMARK INTRA:                  -1.457
REMARK UNBOUND:                -1.963
REMARK  Name = 
REMARK  16 active torsions:
REMARK  status: ('A' for Active; 'I' for Inactive)
REMARK    1  A    between atoms: C_1  and  C_2
REMARK    2  A    between atoms: C_2  and  C_3
REMARK    3  A    between atoms: C_2  and  CA_12
REMARK    4  A    between atoms: C_3  and  C_4
REMARK    5  A    between atoms: C_3  and  O_11
REMARK    6  A    between atoms: C_7  and  O_10
REMARK    7  A    between atoms: CA_12  and  C_13
REMARK    8  A    between atoms: CA_12  and  N_35
REMARK    9  A    between atoms: N_15  and  CA_16
REMARK   10  A    between atoms: CA_16  and  C_17
REMARK   11  A    between atoms: CA_16  and  C_32
REMARK   12  A    between atoms: C_18  and  O_31
REMARK   13  A    between atoms: C_19  and  O_30
REMARK   14  A    between atoms: C_20  and  N_22
REMARK   15  A    between atoms: CA_24  and  C_28
REMARK   16  A    between atoms: C_32  and  OXT_34
REMARK                            x       y       z     vdW  Elec       q    Type
REMARK                         _______ _______ _______ _____ _____    ______ ____
ROOT
ATOM      1  CA  UNL     1      96.309 131.772  73.097  0.00  0.00    +0.213 C 
ENDROOT
BRANCH   1   2
ATOM      2  C   UNL     1      97.838 131.609  73.030  0.00  0.00    +0.183 C 
ATOM      3  C   UNL     1      98.409 130.334  73.660  0.00  0.00    +0.178 C 
ATOM      4  C   UNL     1      99.758 130.770  74.248  0.00  0.00    +0.195 C 
ATOM      5  C   UNL     1      99.912 132.235  73.806  0.00  0.00    +0.255 C 
ATOM      6  O   UNL     1      98.563 132.705  73.600  0.00  0.00    -0.345 OA
BRANCH   5   7
ATOM      7  N   UNL     1     100.697 132.457  72.606  0.00  0.00    -0.270 N 
ATOM      8  C   UNL     1     100.319 132.297  71.289  0.00  0.00    +0.122 A 
ATOM      9  CA  UNL     1     101.363 132.551  70.503  0.00  0.00    +0.099 A 
ATOM     10  N   UNL     1     102.439 132.893  71.284  0.00  0.00    -0.304 N 
ATOM     11  C   UNL     1     102.057 132.836  72.636  0.00  0.00    +0.329 A 
ATOM     12  O   UNL     1     102.775 133.053  73.593  0.00  0.00    -0.246 OA
ATOM     13  H   UNL     1     103.374 133.121  70.985  0.00  0.00    +0.171 HD
BRANCH   9  14
ATOM     14  C   UNL     1     101.372 132.464  69.032  0.00  0.00    +0.278 C 
ATOM     15  O   UNL     1     101.107 133.419  68.316  0.00  0.00    -0.294 OA
ENDBRANCH   9  14
ENDBRANCH   5   7
BRANCH   4  16
ATOM     16  O   UNL     1     100.839 129.912  73.895  0.00  0.00    -0.385 OA
ATOM     17  H   UNL     1     100.435 129.146  73.439  0.00  0.00    +0.210 HD
ENDBRANCH   4  16
BRANCH   3  18
ATOM     18  O   UNL     1      98.602 129.278  72.716  0.00  0.00    -0.386 OA
ATOM     19  H   UNL     1      97.787 129.138  72.190  0.00  0.00    +0.210 HD
ENDBRANCH   3  18
ENDBRANCH   1   2
BRANCH   1  22
ATOM     20  C   UNL     1      95.255 131.351  75.311  0.00  0.00    +0.231 C 
ATOM     21  O   UNL     1      95.343 132.532  75.627  0.00  0.00    -0.274 OA
ATOM     22  N   UNL     1      95.613 130.893  74.054  0.00  0.00    -0.299 N 
ATOM     23  H   UNL     1      95.636 129.891  73.900  0.00  0.00    +0.150 HD
BRANCH  20  24
ATOM     24  CA  UNL     1      94.623 130.285  76.245  0.00  0.00    +0.143 C 
BRANCH  24  25
ATOM     25  N   UNL     1      94.146 130.980  77.462  0.00  0.00    -0.320 NA
ATOM     26  H1  UNL     1      94.820 131.663  77.792  0.00  0.00    +0.119 HD
ATOM     27  H2  UNL     1      94.047 130.281  78.205  0.00  0.00    +0.119 HD
ENDBRANCH  24  25
BRANCH  24  29
ATOM     28  C   UNL     1      93.973 128.031  75.306  0.00  0.00    +0.012 C 
ATOM     29  C   UNL     1      93.488 129.470  75.574  0.00  0.00    +0.046 C 
BRANCH  29  30
ATOM     30  C   UNL     1      92.207 129.473  76.453  0.00  0.00    +0.168 C 
BRANCH  30  31
ATOM     31  C   UNL     1      90.938 129.629  75.622  0.00  0.00    +0.070 A 
ATOM     32  N   UNL     1      89.888 128.829  75.964  0.00  0.00    -0.254 NA
ATOM     33  C   UNL     1      88.774 128.909  75.199  0.00  0.00    +0.156 A 
ATOM     34  C   UNL     1      88.653 129.754  74.109  0.00  0.00    +0.135 A 
ATOM     35  C   UNL     1      89.723 130.574  73.782  0.00  0.00    +0.049 A 
ATOM     36  C   UNL     1      90.886 130.516  74.549  0.00  0.00    +0.029 A 
BRANCH  34  37
ATOM     37  O   UNL     1      87.532 129.820  73.340  0.00  0.00    -0.505 OA
ATOM     38  H   UNL     1      86.747 129.773  73.911  0.00  0.00    +0.292 HD
ENDBRANCH  34  37
ENDBRANCH  30  31
BRANCH  30  39
ATOM     39  O   UNL     1      92.141 128.245  77.192  0.00  0.00    -0.385 OA
ATOM     40  H   UNL     1      92.196 127.538  76.514  0.00  0.00    +0.210 HD
ENDBRANCH  30  39
ENDBRANCH  29  30
ENDBRANCH  24  29
ENDBRANCH  20  24
ENDBRANCH   1  22
BRANCH   1  41
ATOM     41  C   UNL     1      95.736 131.558  71.693  0.00  0.00    +0.328 C 
ATOM     42  O   UNL     1      94.593 131.841  71.362  0.00  0.00    -0.249 OA
BRANCH  41  43
ATOM     43  OXT UNL     1      96.621 130.993  70.836  0.00  0.00    -0.479 OA
ATOM     44  HXT UNL     1      97.389 130.630  71.322  0.00  0.00    +0.295 HD
ENDBRANCH  41  43
ENDBRANCH   1  41
TORSDOF 15
ENDMDL
