MODEL 1
REMARK VINA RESULT:     0.000      0.000      0.000
REMARK INTER + INTRA:          -1.251
REMARK INTER:                   0.000
REMARK INTRA:                  -1.251
REMARK UNBOUND:                -1.251
REMARK  Name = 
REMARK  12 active torsions:
REMARK  status: ('A' for Active; 'I' for Inactive)
REMARK    1  A    between atoms: C_2  and  C_22
REMARK    2  A    between atoms: C_3  and  O_21
REMARK    3  A    between atoms: C_4  and  O_20
REMARK    4  A    between atoms: C_5  and  O_19
REMARK    5  A    between atoms: C_6  and  N_7
REMARK    6  A    between atoms: N_7  and  C_8
REMARK    7  A    between atoms: C_10  and  C_17
REMARK    8  A    between atoms: C_11  and  O_16
REMARK    9  A    between atoms: C_12  and  O_15
REMARK   10  A    between atoms: C_13  and  O_14
REMARK   11  A    between atoms: C_17  and  O_18
REMARK   12  A    between atoms: C_22  and  O_23
REMARK                            x       y       z     vdW  Elec       q    Type
REMARK                         _______ _______ _______ _____ _____    ______ ____
ROOT
ATOM      1  N   UNL     1       0.744   0.910  -2.002  0.00  0.00    -0.302 NA
ATOM      2  H   UNL     1       1.299   1.745  -2.217  0.00  0.00    +0.123 HD
ENDROOT
BRANCH   1   8
ATOM      3  C   UNL     1       1.234   1.928   0.311  0.00  0.00    +0.029 C 
ATOM      4  C   UNL     1       0.458   3.258   0.262  0.00  0.00    +0.047 C 
ATOM      5  C   UNL     1      -0.980   3.058   0.745  0.00  0.00    +0.151 C 
ATOM      6  C   UNL     1      -1.688   1.966  -0.056  0.00  0.00    +0.173 C 
ATOM      7  C   UNL     1      -0.904   0.651  -0.112  0.00  0.00    +0.162 C 
ATOM      8  C   UNL     1       0.590   0.798  -0.519  0.00  0.00    +0.086 C 
BRANCH   7   9
ATOM      9  O   UNL     1      -1.588  -0.215  -1.035  0.00  0.00    -0.388 OA
ATOM     10  H   UNL     1      -0.892  -0.521  -1.652  0.00  0.00    +0.210 HD
ENDBRANCH   7   9
BRANCH   6  11
ATOM     11  O   UNL     1      -2.973   1.742   0.555  0.00  0.00    -0.387 OA
ATOM     12  H   UNL     1      -3.314   2.630   0.785  0.00  0.00    +0.210 HD
ENDBRANCH   6  11
BRANCH   5  13
ATOM     13  O   UNL     1      -1.705   4.280   0.577  0.00  0.00    -0.389 OA
ATOM     14  H   UNL     1      -1.367   4.673  -0.255  0.00  0.00    +0.210 HD
ENDBRANCH   5  13
BRANCH   4  15
ATOM     15  C   UNL     1       1.161   4.336   1.098  0.00  0.00    +0.162 C 
BRANCH  15  16
ATOM     16  O   UNL     1       0.586   4.388   2.399  0.00  0.00    -0.395 OA
ATOM     17  H   UNL     1       1.095   3.773   2.956  0.00  0.00    +0.209 HD
ENDBRANCH  15  16
ENDBRANCH   4  15
ENDBRANCH   1   8
BRANCH   1  18
ATOM     18  C   UNL     1       1.480  -0.228  -2.623  0.00  0.00    +0.109 C 
ATOM     19  C   UNL     1       1.623  -1.426  -1.726  0.00  0.00    -0.002 C 
ATOM     20  C   UNL     1       1.009  -2.615  -1.892  0.00  0.00    -0.016 C 
ATOM     21  C   UNL     1      -0.044  -2.821  -2.958  0.00  0.00    +0.173 C 
ATOM     22  C   UNL     1      -0.353  -1.583  -3.829  0.00  0.00    +0.177 C 
ATOM     23  C   UNL     1       0.872  -0.670  -3.987  0.00  0.00    +0.166 C 
BRANCH  23  24
ATOM     24  O   UNL     1       0.538   0.470  -4.804  0.00  0.00    -0.387 OA
ATOM     25  H   UNL     1       1.022   1.238  -4.451  0.00  0.00    +0.210 HD
ENDBRANCH  23  24
BRANCH  22  26
ATOM     26  O   UNL     1      -0.775  -2.023  -5.137  0.00  0.00    -0.386 OA
ATOM     27  H   UNL     1      -1.353  -2.798  -5.018  0.00  0.00    +0.210 HD
ENDBRANCH  22  26
BRANCH  21  28
ATOM     28  O   UNL     1      -1.239  -3.249  -2.300  0.00  0.00    -0.385 OA
ATOM     29  H   UNL     1      -1.986  -2.807  -2.742  0.00  0.00    +0.210 HD
ENDBRANCH  21  28
BRANCH  20  30
ATOM     30  C   UNL     1       1.339  -3.868  -1.112  0.00  0.00    +0.189 C 
BRANCH  30  31
ATOM     31  O   UNL     1       0.432  -4.070  -0.035  0.00  0.00    -0.391 OA
ATOM     32  H   UNL     1       0.523  -3.304   0.555  0.00  0.00    +0.210 HD
ENDBRANCH  30  31
ENDBRANCH  20  30
ENDBRANCH   1  18
TORSDOF 12
ENDMDL
MODEL 2
REMARK VINA RESULT:     0.000      4.143      5.388
REMARK INTER + INTRA:          -1.251
REMARK INTER:                   0.000
REMARK INTRA:                  -1.251
REMARK UNBOUND:                -1.251
REMARK  Name = 
REMARK  12 active torsions:
REMARK  status: ('A' for Active; 'I' for Inactive)
REMARK    1  A    between atoms: C_2  and  C_22
REMARK    2  A    between atoms: C_3  and  O_21
REMARK    3  A    between atoms: C_4  and  O_20
REMARK    4  A    between atoms: C_5  and  O_19
REMARK    5  A    between atoms: C_6  and  N_7
REMARK    6  A    between atoms: N_7  and  C_8
REMARK    7  A    between atoms: C_10  and  C_17
REMARK    8  A    between atoms: C_11  and  O_16
REMARK    9  A    between atoms: C_12  and  O_15
REMARK   10  A    between atoms: C_13  and  O_14
REMARK   11  A    between atoms: C_17  and  O_18
REMARK   12  A    between atoms: C_22  and  O_23
REMARK                            x       y       z     vdW  Elec       q    Type
REMARK                         _______ _______ _______ _____ _____    ______ ____
ROOT
ATOM      1  N   UNL     1       0.162  -3.295  -3.415  0.00  0.00    -0.302 NA
ATOM      2  H   UNL     1       1.098  -3.121  -3.033  0.00  0.00    +0.123 HD
ENDROOT
BRANCH   1   8
ATOM      3  C   UNL     1       0.137  -4.529  -1.156  0.00  0.00    +0.029 C 
ATOM      4  C   UNL     1       0.248  -3.374  -0.142  0.00  0.00    +0.047 C 
ATOM      5  C   UNL     1      -1.141  -2.846   0.223  0.00  0.00    +0.151 C 
ATOM      6  C   UNL     1      -1.921  -2.426  -1.022  0.00  0.00    +0.173 C 
ATOM      7  C   UNL     1      -1.976  -3.515  -2.098  0.00  0.00    +0.162 C 
ATOM      8  C   UNL     1      -0.602  -4.151  -2.455  0.00  0.00    +0.086 C 
BRANCH   7   9
ATOM      9  O   UNL     1      -2.573  -2.930  -3.268  0.00  0.00    -0.388 OA
ATOM     10  H   UNL     1      -1.825  -2.778  -3.881  0.00  0.00    +0.210 HD
ENDBRANCH   7   9
BRANCH   6  11
ATOM     11  O   UNL     1      -3.256  -2.085  -0.604  0.00  0.00    -0.387 OA
ATOM     12  H   UNL     1      -3.704  -2.937  -0.428  0.00  0.00    +0.210 HD
ENDBRANCH   6  11
BRANCH   5  13
ATOM     13  O   UNL     1      -0.999  -1.702   1.071  0.00  0.00    -0.389 OA
ATOM     14  H   UNL     1      -1.551  -1.002   0.662  0.00  0.00    +0.210 HD
ENDBRANCH   5  13
BRANCH   4  15
ATOM     15  C   UNL     1       1.004  -3.818   1.117  0.00  0.00    +0.162 C 
BRANCH  15  16
ATOM     16  O   UNL     1       0.076  -4.216   2.120  0.00  0.00    -0.395 OA
ATOM     17  H   UNL     1       0.586  -4.681   2.807  0.00  0.00    +0.209 HD
ENDBRANCH  15  16
ENDBRANCH   4  15
ENDBRANCH   1   8
BRANCH   1  18
ATOM     18  C   UNL     1       0.385  -3.926  -4.747  0.00  0.00    +0.109 C 
ATOM     19  C   UNL     1      -0.476  -5.131  -5.004  0.00  0.00    -0.002 C 
ATOM     20  C   UNL     1      -1.487  -5.203  -5.893  0.00  0.00    -0.016 C 
ATOM     21  C   UNL     1      -1.970  -3.983  -6.645  0.00  0.00    +0.173 C 
ATOM     22  C   UNL     1      -1.225  -2.669  -6.320  0.00  0.00    +0.177 C 
ATOM     23  C   UNL     1       0.239  -2.920  -5.926  0.00  0.00    +0.166 C 
BRANCH  23  24
ATOM     24  O   UNL     1       0.894  -1.671  -5.631  0.00  0.00    -0.387 OA
ATOM     25  H   UNL     1       0.971  -1.173  -6.464  0.00  0.00    +0.210 HD
ENDBRANCH  23  24
BRANCH  22  26
ATOM     26  O   UNL     1      -1.251  -1.815  -7.482  0.00  0.00    -0.386 OA
ATOM     27  H   UNL     1      -1.225  -2.386  -8.272  0.00  0.00    +0.210 HD
ENDBRANCH  22  26
BRANCH  21  28
ATOM     28  O   UNL     1      -3.361  -3.824  -6.351  0.00  0.00    -0.385 OA
ATOM     29  H   UNL     1      -3.810  -4.642  -6.630  0.00  0.00    +0.210 HD
ENDBRANCH  21  28
BRANCH  20  30
ATOM     30  C   UNL     1      -2.188  -6.482  -6.293  0.00  0.00    +0.189 C 
BRANCH  30  31
ATOM     31  O   UNL     1      -3.411  -6.654  -5.587  0.00  0.00    -0.391 OA
ATOM     32  H   UNL     1      -3.305  -6.205  -4.731  0.00  0.00    +0.210 HD
ENDBRANCH  30  31
ENDBRANCH  20  30
ENDBRANCH   1  18
TORSDOF 12
ENDMDL
MODEL 3
REMARK VINA RESULT:     0.000      2.995      6.553
REMARK INTER + INTRA:          -1.251
REMARK INTER:                   0.000
REMARK INTRA:                  -1.251
REMARK UNBOUND:                -1.251
REMARK  Name = 
REMARK  12 active torsions:
REMARK  status: ('A' for Active; 'I' for Inactive)
REMARK    1  A    between atoms: C_2  and  C_22
REMARK    2  A    between atoms: C_3  and  O_21
REMARK    3  A    between atoms: C_4  and  O_20
REMARK    4  A    between atoms: C_5  and  O_19
REMARK    5  A    between atoms: C_6  and  N_7
REMARK    6  A    between atoms: N_7  and  C_8
REMARK    7  A    between atoms: C_10  and  C_17
REMARK    8  A    between atoms: C_11  and  O_16
REMARK    9  A    between atoms: C_12  and  O_15
REMARK   10  A    between atoms: C_13  and  O_14
REMARK   11  A    between atoms: C_17  and  O_18
REMARK   12  A    between atoms: C_22  and  O_23
REMARK                            x       y       z     vdW  Elec       q    Type
REMARK                         _______ _______ _______ _____ _____    ______ ____
ROOT
ATOM      1  N   UNL     1       0.118   0.914   1.462  0.00  0.00    -0.302 NA
ATOM      2  H   UNL     1       0.859   0.265   1.177  0.00  0.00    +0.123 HD
ENDROOT
BRANCH   1   8
ATOM      3  C   UNL     1       1.427   2.230  -0.322  0.00  0.00    +0.029 C 
ATOM      4  C   UNL     1       1.154   1.418  -1.603  0.00  0.00    +0.047 C 
ATOM      5  C   UNL     1      -0.120   1.913  -2.290  0.00  0.00    +0.151 C 
ATOM      6  C   UNL     1      -1.315   1.875  -1.337  0.00  0.00    +0.173 C 
ATOM      7  C   UNL     1      -1.053   2.592  -0.010  0.00  0.00    +0.162 C 
ATOM      8  C   UNL     1       0.272   2.191   0.700  0.00  0.00    +0.086 C 
BRANCH   7   9
ATOM      9  O   UNL     1      -2.176   2.326   0.848  0.00  0.00    -0.388 OA
ATOM     10  H   UNL     1      -2.617   1.548   0.449  0.00  0.00    +0.210 HD
ENDBRANCH   7   9
BRANCH   6  11
ATOM     11  O   UNL     1      -2.429   2.490  -2.013  0.00  0.00    -0.387 OA
ATOM     12  H   UNL     1      -2.317   2.269  -2.960  0.00  0.00    +0.210 HD
ENDBRANCH   6  11
BRANCH   5  13
ATOM     13  O   UNL     1      -0.409   1.066  -3.407  0.00  0.00    -0.389 OA
ATOM     14  H   UNL     1      -1.138   0.481  -3.110  0.00  0.00    +0.210 HD
ENDBRANCH   5  13
BRANCH   4  15
ATOM     15  C   UNL     1       2.348   1.491  -2.564  0.00  0.00    +0.162 C 
BRANCH  15  16
ATOM     16  O   UNL     1       2.130   2.519  -3.524  0.00  0.00    -0.395 OA
ATOM     17  H   UNL     1       2.392   3.358  -3.104  0.00  0.00    +0.209 HD
ENDBRANCH  15  16
ENDBRANCH   4  15
ENDBRANCH   1   8
BRANCH   1  18
ATOM     18  C   UNL     1       0.269   1.067   2.938  0.00  0.00    +0.109 C 
ATOM     19  C   UNL     1       0.198   2.490   3.416  0.00  0.00    -0.002 C 
ATOM     20  C   UNL     1      -0.802   3.030   4.142  0.00  0.00    -0.016 C 
ATOM     21  C   UNL     1      -2.073   2.264   4.434  0.00  0.00    +0.173 C 
ATOM     22  C   UNL     1      -2.134   0.837   3.845  0.00  0.00    +0.177 C 
ATOM     23  C   UNL     1      -0.741   0.197   3.743  0.00  0.00    +0.166 C 
BRANCH  23  24
ATOM     24  O   UNL     1      -0.846  -1.130   3.188  0.00  0.00    -0.387 OA
ATOM     25  H   UNL     1      -0.825  -1.047   2.219  0.00  0.00    +0.210 HD
ENDBRANCH  23  24
BRANCH  22  26
ATOM     26  O   UNL     1      -2.960   0.014   4.694  0.00  0.00    -0.386 OA
ATOM     27  H   UNL     1      -2.370  -0.503   5.273  0.00  0.00    +0.210 HD
ENDBRANCH  22  26
BRANCH  21  28
ATOM     28  O   UNL     1      -3.162   3.036   3.922  0.00  0.00    -0.385 OA
ATOM     29  H   UNL     1      -2.996   3.177   2.974  0.00  0.00    +0.210 HD
ENDBRANCH  21  28
BRANCH  20  30
ATOM     30  C   UNL     1      -0.746   4.392   4.799  0.00  0.00    +0.189 C 
BRANCH  30  31
ATOM     31  O   UNL     1      -1.403   5.380   4.014  0.00  0.00    -0.391 OA
ATOM     32  H   UNL     1      -1.022   5.327   3.122  0.00  0.00    +0.210 HD
ENDBRANCH  30  31
ENDBRANCH  20  30
ENDBRANCH   1  18
TORSDOF 12
ENDMDL
MODEL 4
REMARK VINA RESULT:     0.000      5.835      8.939
REMARK INTER + INTRA:          -1.251
REMARK INTER:                   0.000
REMARK INTRA:                  -1.251
REMARK UNBOUND:                -1.251
REMARK  Name = 
REMARK  12 active torsions:
REMARK  status: ('A' for Active; 'I' for Inactive)
REMARK    1  A    between atoms: C_2  and  C_22
REMARK    2  A    between atoms: C_3  and  O_21
REMARK    3  A    between atoms: C_4  and  O_20
REMARK    4  A    between atoms: C_5  and  O_19
REMARK    5  A    between atoms: C_6  and  N_7
REMARK    6  A    between atoms: N_7  and  C_8
REMARK    7  A    between atoms: C_10  and  C_17
REMARK    8  A    between atoms: C_11  and  O_16
REMARK    9  A    between atoms: C_12  and  O_15
REMARK   10  A    between atoms: C_13  and  O_14
REMARK   11  A    between atoms: C_17  and  O_18
REMARK   12  A    between atoms: C_22  and  O_23
REMARK                            x       y       z     vdW  Elec       q    Type
REMARK                         _______ _______ _______ _____ _____    ______ ____
ROOT
ATOM      1  N   UNL     1       1.274   6.365  -1.634  0.00  0.00    -0.302 NA
ATOM      2  H   UNL     1       1.570   5.800  -2.438  0.00  0.00    +0.123 HD
ENDROOT
BRANCH   1   8
ATOM      3  C   UNL     1       1.993   8.118  -3.378  0.00  0.00    +0.029 C 
ATOM      4  C   UNL     1       0.945   7.931  -4.491  0.00  0.00    +0.047 C 
ATOM      5  C   UNL     1      -0.278   8.812  -4.229  0.00  0.00    +0.151 C 
ATOM      6  C   UNL     1      -0.873   8.540  -2.848  0.00  0.00    +0.173 C 
ATOM      7  C   UNL     1       0.157   8.623  -1.718  0.00  0.00    +0.162 C 
ATOM      8  C   UNL     1       1.462   7.812  -1.962  0.00  0.00    +0.086 C 
BRANCH   7   9
ATOM      9  O   UNL     1      -0.490   8.173  -0.516  0.00  0.00    -0.388 OA
ATOM     10  H   UNL     1      -0.292   8.865   0.149  0.00  0.00    +0.210 HD
ENDBRANCH   7   9
BRANCH   6  11
ATOM     11  O   UNL     1      -1.919   9.505  -2.627  0.00  0.00    -0.387 OA
ATOM     12  H   UNL     1      -2.174   9.408  -1.687  0.00  0.00    +0.210 HD
ENDBRANCH   6  11
BRANCH   5  13
ATOM     13  O   UNL     1      -1.278   8.529  -5.213  0.00  0.00    -0.389 OA
ATOM     14  H   UNL     1      -1.720   9.386  -5.391  0.00  0.00    +0.210 HD
ENDBRANCH   5  13
BRANCH   4  15
ATOM     15  C   UNL     1       1.546   8.240  -5.869  0.00  0.00    +0.162 C 
BRANCH  15  16
ATOM     16  O   UNL     1       1.256   9.585  -6.230  0.00  0.00    -0.395 OA
ATOM     17  H   UNL     1       1.745   9.768  -7.052  0.00  0.00    +0.209 HD
ENDBRANCH  15  16
ENDBRANCH   4  15
ENDBRANCH   1   8
BRANCH   1  18
ATOM     18  C   UNL     1       2.102   5.890  -0.489  0.00  0.00    +0.109 C 
ATOM     19  C   UNL     1       2.695   6.996   0.337  0.00  0.00    -0.002 C 
ATOM     20  C   UNL     1       2.343   7.315   1.600  0.00  0.00    -0.016 C 
ATOM     21  C   UNL     1       1.165   6.658   2.284  0.00  0.00    +0.173 C 
ATOM     22  C   UNL     1       0.411   5.608   1.437  0.00  0.00    +0.177 C 
ATOM     23  C   UNL     1       1.339   4.899   0.440  0.00  0.00    +0.166 C 
BRANCH  23  24
ATOM     24  O   UNL     1       0.595   3.933  -0.328  0.00  0.00    -0.387 OA
ATOM     25  H   UNL     1       0.205   3.296   0.296  0.00  0.00    +0.210 HD
ENDBRANCH  23  24
BRANCH  22  26
ATOM     26  O   UNL     1      -0.163   4.621   2.318  0.00  0.00    -0.386 OA
ATOM     27  H   UNL     1      -0.355   3.825   1.788  0.00  0.00    +0.210 HD
ENDBRANCH  22  26
BRANCH  21  28
ATOM     28  O   UNL     1       0.261   7.697   2.668  0.00  0.00    -0.385 OA
ATOM     29  H   UNL     1       0.101   8.246   1.880  0.00  0.00    +0.210 HD
ENDBRANCH  21  28
BRANCH  20  30
ATOM     30  C   UNL     1       3.102   8.279   2.485  0.00  0.00    +0.189 C 
BRANCH  30  31
ATOM     31  O   UNL     1       2.508   9.571   2.484  0.00  0.00    -0.391 OA
ATOM     32  H   UNL     1       2.205   9.740   1.576  0.00  0.00    +0.210 HD
ENDBRANCH  30  31
ENDBRANCH  20  30
ENDBRANCH   1  18
TORSDOF 12
ENDMDL
MODEL 5
REMARK VINA RESULT:     0.000      4.254      4.966
REMARK INTER + INTRA:          -1.251
REMARK INTER:                   0.000
REMARK INTRA:                  -1.251
REMARK UNBOUND:                -1.251
REMARK  Name = 
REMARK  12 active torsions:
REMARK  status: ('A' for Active; 'I' for Inactive)
REMARK    1  A    between atoms: C_2  and  C_22
REMARK    2  A    between atoms: C_3  and  O_21
REMARK    3  A    between atoms: C_4  and  O_20
REMARK    4  A    between atoms: C_5  and  O_19
REMARK    5  A    between atoms: C_6  and  N_7
REMARK    6  A    between atoms: N_7  and  C_8
REMARK    7  A    between atoms: C_10  and  C_17
REMARK    8  A    between atoms: C_11  and  O_16
REMARK    9  A    between atoms: C_12  and  O_15
REMARK   10  A    between atoms: C_13  and  O_14
REMARK   11  A    between atoms: C_17  and  O_18
REMARK   12  A    between atoms: C_22  and  O_23
REMARK                            x       y       z     vdW  Elec       q    Type
REMARK                         _______ _______ _______ _____ _____    ______ ____
ROOT
ATOM      1  N   UNL     1      -2.289   1.326  -5.499  0.00  0.00    -0.302 NA
ATOM      2  H   UNL     1      -1.738   1.615  -6.315  0.00  0.00    +0.123 HD
ENDROOT
BRANCH   1   8
ATOM      3  C   UNL     1      -0.535   2.931  -4.512  0.00  0.00    +0.029 C 
ATOM      4  C   UNL     1      -0.924   4.281  -5.143  0.00  0.00    +0.047 C 
ATOM      5  C   UNL     1      -1.954   5.003  -4.273  0.00  0.00    +0.151 C 
ATOM      6  C   UNL     1      -3.182   4.127  -4.024  0.00  0.00    +0.173 C 
ATOM      7  C   UNL     1      -2.834   2.737  -3.483  0.00  0.00    +0.162 C 
ATOM      8  C   UNL     1      -1.729   1.983  -4.278  0.00  0.00    +0.086 C 
BRANCH   7   9
ATOM      9  O   UNL     1      -4.048   1.968  -3.467  0.00  0.00    -0.388 OA
ATOM     10  H   UNL     1      -3.753   1.034  -3.454  0.00  0.00    +0.210 HD
ENDBRANCH   7   9
BRANCH   6  11
ATOM     11  O   UNL     1      -4.027   4.819  -3.085  0.00  0.00    -0.387 OA
ATOM     12  H   UNL     1      -3.556   4.778  -2.228  0.00  0.00    +0.210 HD
ENDBRANCH   6  11
BRANCH   5  13
ATOM     13  O   UNL     1      -2.381   6.194  -4.943  0.00  0.00    -0.389 OA
ATOM     14  H   UNL     1      -2.531   6.854  -4.234  0.00  0.00    +0.210 HD
ENDBRANCH   5  13
BRANCH   4  15
ATOM     15  C   UNL     1       0.313   5.164  -5.357  0.00  0.00    +0.162 C 
BRANCH  15  16
ATOM     16  O   UNL     1       0.462   6.058  -4.260  0.00  0.00    -0.395 OA
ATOM     17  H   UNL     1       0.346   5.531  -3.449  0.00  0.00    +0.209 HD
ENDBRANCH  15  16
ENDBRANCH   4  15
ENDBRANCH   1   8
BRANCH   1  18
ATOM     18  C   UNL     1      -2.215  -0.163  -5.476  0.00  0.00    +0.109 C 
ATOM     19  C   UNL     1      -1.925  -0.739  -4.118  0.00  0.00    -0.002 C 
ATOM     20  C   UNL     1      -2.788  -1.443  -3.358  0.00  0.00    -0.016 C 
ATOM     21  C   UNL     1      -4.240  -1.604  -3.750  0.00  0.00    +0.173 C 
ATOM     22  C   UNL     1      -4.649  -0.910  -5.068  0.00  0.00    +0.177 C 
ATOM     23  C   UNL     1      -3.485  -0.842  -6.068  0.00  0.00    +0.166 C 
BRANCH  23  24
ATOM     24  O   UNL     1      -3.910  -0.187  -7.279  0.00  0.00    -0.387 OA
ATOM     25  H   UNL     1      -3.430  -0.596  -8.021  0.00  0.00    +0.210 HD
ENDBRANCH  23  24
BRANCH  22  26
ATOM     26  O   UNL     1      -5.733  -1.647  -5.669  0.00  0.00    -0.386 OA
ATOM     27  H   UNL     1      -6.009  -2.337  -5.039  0.00  0.00    +0.210 HD
ENDBRANCH  22  26
BRANCH  21  28
ATOM     28  O   UNL     1      -5.030  -1.088  -2.676  0.00  0.00    -0.385 OA
ATOM     29  H   UNL     1      -4.800  -0.148  -2.574  0.00  0.00    +0.210 HD
ENDBRANCH  21  28
BRANCH  20  30
ATOM     30  C   UNL     1      -2.407  -2.200  -2.105  0.00  0.00    +0.189 C 
BRANCH  30  31
ATOM     31  O   UNL     1      -2.703  -1.453  -0.931  0.00  0.00    -0.391 OA
ATOM     32  H   UNL     1      -2.312  -0.572  -1.054  0.00  0.00    +0.210 HD
ENDBRANCH  30  31
ENDBRANCH  20  30
ENDBRANCH   1  18
TORSDOF 12
ENDMDL
MODEL 6
REMARK VINA RESULT:     0.000      5.583      8.401
REMARK INTER + INTRA:          -1.251
REMARK INTER:                   0.000
REMARK INTRA:                  -1.251
REMARK UNBOUND:                -1.251
REMARK  Name = 
REMARK  12 active torsions:
REMARK  status: ('A' for Active; 'I' for Inactive)
REMARK    1  A    between atoms: C_2  and  C_22
REMARK    2  A    between atoms: C_3  and  O_21
REMARK    3  A    between atoms: C_4  and  O_20
REMARK    4  A    between atoms: C_5  and  O_19
REMARK    5  A    between atoms: C_6  and  N_7
REMARK    6  A    between atoms: N_7  and  C_8
REMARK    7  A    between atoms: C_10  and  C_17
REMARK    8  A    between atoms: C_11  and  O_16
REMARK    9  A    between atoms: C_12  and  O_15
REMARK   10  A    between atoms: C_13  and  O_14
REMARK   11  A    between atoms: C_17  and  O_18
REMARK   12  A    between atoms: C_22  and  O_23
REMARK                            x       y       z     vdW  Elec       q    Type
REMARK                         _______ _______ _______ _____ _____    ______ ____
ROOT
ATOM      1  N   UNL     1       4.367  -1.954  -2.533  0.00  0.00    -0.302 NA
ATOM      2  H   UNL     1       3.583  -2.000  -3.193  0.00  0.00    +0.123 HD
ENDROOT
BRANCH   1   8
ATOM      3  C   UNL     1       2.864  -3.806  -1.565  0.00  0.00    +0.029 C 
ATOM      4  C   UNL     1       2.953  -4.905  -2.640  0.00  0.00    +0.047 C 
ATOM      5  C   UNL     1       4.137  -5.833  -2.362  0.00  0.00    +0.151 C 
ATOM      6  C   UNL     1       5.445  -5.048  -2.253  0.00  0.00    +0.173 C 
ATOM      7  C   UNL     1       5.371  -3.884  -1.261  0.00  0.00    +0.162 C 
ATOM      8  C   UNL     1       4.140  -2.949  -1.441  0.00  0.00    +0.086 C 
BRANCH   7   9
ATOM      9  O   UNL     1       6.590  -3.133  -1.392  0.00  0.00    -0.388 OA
ATOM     10  H   UNL     1       6.397  -2.462  -2.079  0.00  0.00    +0.210 HD
ENDBRANCH   7   9
BRANCH   6  11
ATOM     11  O   UNL     1       6.473  -5.971  -1.848  0.00  0.00    -0.387 OA
ATOM     12  H   UNL     1       7.043  -5.474  -1.226  0.00  0.00    +0.210 HD
ENDBRANCH   6  11
BRANCH   5  13
ATOM     13  O   UNL     1       4.263  -6.768  -3.439  0.00  0.00    -0.389 OA
ATOM     14  H   UNL     1       3.479  -6.619  -4.008  0.00  0.00    +0.210 HD
ENDBRANCH   5  13
BRANCH   4  15
ATOM     15  C   UNL     1       1.647  -5.707  -2.716  0.00  0.00    +0.162 C 
BRANCH  15  16
ATOM     16  O   UNL     1       1.759  -6.885  -1.926  0.00  0.00    -0.395 OA
ATOM     17  H   UNL     1       1.860  -7.631  -2.544  0.00  0.00    +0.209 HD
ENDBRANCH  15  16
ENDBRANCH   4  15
ENDBRANCH   1   8
BRANCH   1  18
ATOM     18  C   UNL     1       4.412  -0.538  -2.066  0.00  0.00    +0.109 C 
ATOM     19  C   UNL     1       4.572  -0.391  -0.579  0.00  0.00    -0.002 C 
ATOM     20  C   UNL     1       5.668   0.075   0.054  0.00  0.00    -0.016 C 
ATOM     21  C   UNL     1       6.950   0.367  -0.692  0.00  0.00    +0.173 C 
ATOM     22  C   UNL     1       6.906   0.097  -2.212  0.00  0.00    +0.177 C 
ATOM     23  C   UNL     1       5.500   0.305  -2.793  0.00  0.00    +0.166 C 
BRANCH  23  24
ATOM     24  O   UNL     1       5.505   0.041  -4.210  0.00  0.00    -0.387 OA
ATOM     25  H   UNL     1       4.747  -0.538  -4.405  0.00  0.00    +0.210 HD
ENDBRANCH  23  24
BRANCH  22  26
ATOM     26  O   UNL     1       7.819   0.996  -2.875  0.00  0.00    -0.386 OA
ATOM     27  H   UNL     1       8.158   1.621  -2.208  0.00  0.00    +0.210 HD
ENDBRANCH  22  26
BRANCH  21  28
ATOM     28  O   UNL     1       7.980  -0.428  -0.098  0.00  0.00    -0.385 OA
ATOM     29  H   UNL     1       8.785  -0.301  -0.629  0.00  0.00    +0.210 HD
ENDBRANCH  21  28
BRANCH  20  30
ATOM     30  C   UNL     1       5.725   0.424   1.525  0.00  0.00    +0.189 C 
BRANCH  30  31
ATOM     31  O   UNL     1       6.295  -0.629   2.293  0.00  0.00    -0.391 OA
ATOM     32  H   UNL     1       7.256  -0.486   2.294  0.00  0.00    +0.210 HD
ENDBRANCH  30  31
ENDBRANCH  20  30
ENDBRANCH   1  18
TORSDOF 12
ENDMDL
MODEL 7
REMARK VINA RESULT:     0.000      3.172      4.155
REMARK INTER + INTRA:          -1.251
REMARK INTER:                   0.000
REMARK INTRA:                  -1.251
REMARK UNBOUND:                -1.251
REMARK  Name = 
REMARK  12 active torsions:
REMARK  status: ('A' for Active; 'I' for Inactive)
REMARK    1  A    between atoms: C_2  and  C_22
REMARK    2  A    between atoms: C_3  and  O_21
REMARK    3  A    between atoms: C_4  and  O_20
REMARK    4  A    between atoms: C_5  and  O_19
REMARK    5  A    between atoms: C_6  and  N_7
REMARK    6  A    between atoms: N_7  and  C_8
REMARK    7  A    between atoms: C_10  and  C_17
REMARK    8  A    between atoms: C_11  and  O_16
REMARK    9  A    between atoms: C_12  and  O_15
REMARK   10  A    between atoms: C_13  and  O_14
REMARK   11  A    between atoms: C_17  and  O_18
REMARK   12  A    between atoms: C_22  and  O_23
REMARK                            x       y       z     vdW  Elec       q    Type
REMARK                         _______ _______ _______ _____ _____    ______ ____
ROOT
ATOM      1  N   UNL     1      -0.054  -0.037   0.651  0.00  0.00    -0.302 NA
ATOM      2  H   UNL     1       0.616   0.236  -0.077  0.00  0.00    +0.123 HD
ENDROOT
BRANCH   1   8
ATOM      3  C   UNL     1       0.596   2.370   1.292  0.00  0.00    +0.029 C 
ATOM      4  C   UNL     1       0.022   3.194   0.123  0.00  0.00    +0.047 C 
ATOM      5  C   UNL     1      -1.426   3.595   0.411  0.00  0.00    +0.151 C 
ATOM      6  C   UNL     1      -2.292   2.372   0.713  0.00  0.00    +0.173 C 
ATOM      7  C   UNL     1      -1.709   1.473   1.807  0.00  0.00    +0.162 C 
ATOM      8  C   UNL     1      -0.211   1.096   1.614  0.00  0.00    +0.086 C 
BRANCH   7   9
ATOM      9  O   UNL     1      -2.517   0.286   1.860  0.00  0.00    -0.388 OA
ATOM     10  H   UNL     1      -2.936   0.229   0.976  0.00  0.00    +0.210 HD
ENDBRANCH   7   9
BRANCH   6  11
ATOM     11  O   UNL     1      -3.591   2.848   1.113  0.00  0.00    -0.387 OA
ATOM     12  H   UNL     1      -4.187   2.075   1.043  0.00  0.00    +0.210 HD
ENDBRANCH   6  11
BRANCH   5  13
ATOM     13  O   UNL     1      -1.966   4.255  -0.739  0.00  0.00    -0.389 OA
ATOM     14  H   UNL     1      -2.752   4.744  -0.415  0.00  0.00    +0.210 HD
ENDBRANCH   5  13
BRANCH   4  15
ATOM     15  C   UNL     1       0.882   4.436  -0.148  0.00  0.00    +0.162 C 
BRANCH  15  16
ATOM     16  O   UNL     1       0.328   5.561   0.527  0.00  0.00    -0.395 OA
ATOM     17  H   UNL     1      -0.070   6.130  -0.154  0.00  0.00    +0.209 HD
ENDBRANCH  15  16
ENDBRANCH   4  15
ENDBRANCH   1   8
BRANCH   1  18
ATOM     18  C   UNL     1       0.504  -1.278   1.260  0.00  0.00    +0.109 C 
ATOM     19  C   UNL     1       0.477  -1.287   2.763  0.00  0.00    -0.002 C 
ATOM     20  C   UNL     1      -0.306  -2.068   3.534  0.00  0.00    -0.016 C 
ATOM     21  C   UNL     1      -1.385  -2.944   2.937  0.00  0.00    +0.173 C 
ATOM     22  C   UNL     1      -1.516  -2.875   1.399  0.00  0.00    +0.177 C 
ATOM     23  C   UNL     1      -0.171  -2.573   0.720  0.00  0.00    +0.166 C 
BRANCH  23  24
ATOM     24  O   UNL     1      -0.341  -2.517  -0.710  0.00  0.00    -0.387 OA
ATOM     25  H   UNL     1       0.422  -2.037  -1.079  0.00  0.00    +0.210 HD
ENDBRANCH  23  24
BRANCH  22  26
ATOM     26  O   UNL     1      -2.006  -4.142   0.913  0.00  0.00    -0.386 OA
ATOM     27  H   UNL     1      -1.776  -4.822   1.572  0.00  0.00    +0.210 HD
ENDBRANCH  22  26
BRANCH  21  28
ATOM     28  O   UNL     1      -2.625  -2.561   3.537  0.00  0.00    -0.385 OA
ATOM     29  H   UNL     1      -3.213  -2.263   2.820  0.00  0.00    +0.210 HD
ENDBRANCH  21  28
BRANCH  20  30
ATOM     30  C   UNL     1      -0.157  -2.220   5.032  0.00  0.00    +0.189 C 
BRANCH  30  31
ATOM     31  O   UNL     1      -1.076  -1.396   5.737  0.00  0.00    -0.391 OA
ATOM     32  H   UNL     1      -1.471  -1.948   6.433  0.00  0.00    +0.210 HD
ENDBRANCH  30  31
ENDBRANCH  20  30
ENDBRANCH   1  18
TORSDOF 12
ENDMDL
MODEL 8
REMARK VINA RESULT:     0.000      7.106      8.679
REMARK INTER + INTRA:          -1.251
REMARK INTER:                   0.000
REMARK INTRA:                  -1.251
REMARK UNBOUND:                -1.251
REMARK  Name = 
REMARK  12 active torsions:
REMARK  status: ('A' for Active; 'I' for Inactive)
REMARK    1  A    between atoms: C_2  and  C_22
REMARK    2  A    between atoms: C_3  and  O_21
REMARK    3  A    between atoms: C_4  and  O_20
REMARK    4  A    between atoms: C_5  and  O_19
REMARK    5  A    between atoms: C_6  and  N_7
REMARK    6  A    between atoms: N_7  and  C_8
REMARK    7  A    between atoms: C_10  and  C_17
REMARK    8  A    between atoms: C_11  and  O_16
REMARK    9  A    between atoms: C_12  and  O_15
REMARK   10  A    between atoms: C_13  and  O_14
REMARK   11  A    between atoms: C_17  and  O_18
REMARK   12  A    between atoms: C_22  and  O_23
REMARK                            x       y       z     vdW  Elec       q    Type
REMARK                         _______ _______ _______ _____ _____    ______ ____
ROOT
ATOM      1  N   UNL     1      -5.081  -5.803  -5.751  0.00  0.00    -0.302 NA
ATOM      2  H   UNL     1      -5.419  -5.535  -6.682  0.00  0.00    +0.123 HD
ENDROOT
BRANCH   1   8
ATOM      3  C   UNL     1      -3.699  -3.707  -6.319  0.00  0.00    +0.029 C 
ATOM      4  C   UNL     1      -4.770  -2.600  -6.353  0.00  0.00    +0.047 C 
ATOM      5  C   UNL     1      -4.962  -1.997  -4.961  0.00  0.00    +0.151 C 
ATOM      6  C   UNL     1      -5.302  -3.074  -3.930  0.00  0.00    +0.173 C 
ATOM      7  C   UNL     1      -4.313  -4.242  -3.928  0.00  0.00    +0.162 C 
ATOM      8  C   UNL     1      -4.012  -4.848  -5.329  0.00  0.00    +0.086 C 
BRANCH   7   9
ATOM      9  O   UNL     1      -4.846  -5.252  -3.054  0.00  0.00    -0.388 OA
ATOM     10  H   UNL     1      -4.064  -5.759  -2.752  0.00  0.00    +0.210 HD
ENDBRANCH   7   9
BRANCH   6  11
ATOM     11  O   UNL     1      -5.320  -2.446  -2.635  0.00  0.00    -0.387 OA
ATOM     12  H   UNL     1      -6.265  -2.363  -2.395  0.00  0.00    +0.210 HD
ENDBRANCH   6  11
BRANCH   5  13
ATOM     13  O   UNL     1      -6.042  -1.057  -5.001  0.00  0.00    -0.389 OA
ATOM     14  H   UNL     1      -6.681  -1.364  -4.325  0.00  0.00    +0.210 HD
ENDBRANCH   5  13
BRANCH   4  15
ATOM     15  C   UNL     1      -4.400  -1.509  -7.366  0.00  0.00    +0.162 C 
BRANCH  15  16
ATOM     16  O   UNL     1      -3.738  -0.438  -6.701  0.00  0.00    -0.395 OA
ATOM     17  H   UNL     1      -2.783  -0.616  -6.764  0.00  0.00    +0.209 HD
ENDBRANCH  15  16
ENDBRANCH   4  15
ENDBRANCH   1   8
BRANCH   1  18
ATOM     18  C   UNL     1      -4.616  -7.214  -5.888  0.00  0.00    +0.109 C 
ATOM     19  C   UNL     1      -3.281  -7.481  -5.253  0.00  0.00    -0.002 C 
ATOM     20  C   UNL     1      -3.066  -8.228  -4.151  0.00  0.00    -0.016 C 
ATOM     21  C   UNL     1      -4.211  -8.773  -3.327  0.00  0.00    +0.173 C 
ATOM     22  C   UNL     1      -5.624  -8.412  -3.839  0.00  0.00    +0.177 C 
ATOM     23  C   UNL     1      -5.657  -8.248  -5.366  0.00  0.00    +0.166 C 
BRANCH  23  24
ATOM     24  O   UNL     1      -6.990  -7.911  -5.799  0.00  0.00    -0.387 OA
ATOM     25  H   UNL     1      -7.353  -7.269  -5.164  0.00  0.00    +0.210 HD
ENDBRANCH  23  24
BRANCH  22  26
ATOM     26  O   UNL     1      -6.540  -9.462  -3.467  0.00  0.00    -0.386 OA
ATOM     27  H   UNL     1      -6.858  -9.884  -4.286  0.00  0.00    +0.210 HD
ENDBRANCH  22  26
BRANCH  21  28
ATOM     28  O   UNL     1      -4.050  -8.280  -1.994  0.00  0.00    -0.385 OA
ATOM     29  H   UNL     1      -3.724  -7.365  -2.062  0.00  0.00    +0.210 HD
ENDBRANCH  21  28
BRANCH  20  30
ATOM     30  C   UNL     1      -1.702  -8.666  -3.663  0.00  0.00    +0.189 C 
BRANCH  30  31
ATOM     31  O   UNL     1      -1.223  -7.824  -2.622  0.00  0.00    -0.391 OA
ATOM     32  H   UNL     1      -1.956  -7.709  -1.995  0.00  0.00    +0.210 HD
ENDBRANCH  30  31
ENDBRANCH  20  30
ENDBRANCH   1  18
TORSDOF 12
ENDMDL
MODEL 9
REMARK VINA RESULT:     0.000      3.331      5.143
REMARK INTER + INTRA:          -1.251
REMARK INTER:                   0.000
REMARK INTRA:                  -1.251
REMARK UNBOUND:                -1.251
REMARK  Name = 
REMARK  12 active torsions:
REMARK  status: ('A' for Active; 'I' for Inactive)
REMARK    1  A    between atoms: C_2  and  C_22
REMARK    2  A    between atoms: C_3  and  O_21
REMARK    3  A    between atoms: C_4  and  O_20
REMARK    4  A    between atoms: C_5  and  O_19
REMARK    5  A    between atoms: C_6  and  N_7
REMARK    6  A    between atoms: N_7  and  C_8
REMARK    7  A    between atoms: C_10  and  C_17
REMARK    8  A    between atoms: C_11  and  O_16
REMARK    9  A    between atoms: C_12  and  O_15
REMARK   10  A    between atoms: C_13  and  O_14
REMARK   11  A    between atoms: C_17  and  O_18
REMARK   12  A    between atoms: C_22  and  O_23
REMARK                            x       y       z     vdW  Elec       q    Type
REMARK                         _______ _______ _______ _____ _____    ______ ____
ROOT
ATOM      1  N   UNL     1       1.753  -2.982  -1.274  0.00  0.00    -0.302 NA
ATOM      2  H   UNL     1       0.973  -2.548  -1.780  0.00  0.00    +0.123 HD
ENDROOT
BRANCH   1   8
ATOM      3  C   UNL     1       2.366  -0.482  -1.308  0.00  0.00    +0.029 C 
ATOM      4  C   UNL     1       1.263   0.145  -0.434  0.00  0.00    +0.047 C 
ATOM      5  C   UNL     1       1.681   0.146   1.037  0.00  0.00    +0.151 C 
ATOM      6  C   UNL     1       2.041  -1.261   1.514  0.00  0.00    +0.173 C 
ATOM      7  C   UNL     1       3.068  -1.959   0.617  0.00  0.00    +0.162 C 
ATOM      8  C   UNL     1       2.741  -1.922  -0.903  0.00  0.00    +0.086 C 
BRANCH   7   9
ATOM      9  O   UNL     1       3.177  -3.319   1.070  0.00  0.00    -0.388 OA
ATOM     10  H   UNL     1       3.979  -3.333   1.632  0.00  0.00    +0.210 HD
ENDBRANCH   7   9
BRANCH   6  11
ATOM     11  O   UNL     1       2.559  -1.148   2.853  0.00  0.00    -0.387 OA
ATOM     12  H   UNL     1       3.372  -0.608   2.776  0.00  0.00    +0.210 HD
ENDBRANCH   6  11
BRANCH   5  13
ATOM     13  O   UNL     1       0.591   0.624   1.833  0.00  0.00    -0.389 OA
ATOM     14  H   UNL     1       0.476  -0.040   2.545  0.00  0.00    +0.210 HD
ENDBRANCH   5  13
BRANCH   4  15
ATOM     15  C   UNL     1       0.934   1.569  -0.902  0.00  0.00    +0.162 C 
BRANCH  15  16
ATOM     16  O   UNL     1       1.669   2.511  -0.128  0.00  0.00    -0.395 OA
ATOM     17  H   UNL     1       2.536   2.108   0.057  0.00  0.00    +0.209 HD
ENDBRANCH  15  16
ENDBRANCH   4  15
ENDBRANCH   1   8
BRANCH   1  18
ATOM     18  C   UNL     1       2.295  -4.022  -2.195  0.00  0.00    +0.109 C 
ATOM     19  C   UNL     1       3.794  -4.021  -2.304  0.00  0.00    -0.002 C 
ATOM     20  C   UNL     1       4.621  -4.975  -1.830  0.00  0.00    -0.016 C 
ATOM     21  C   UNL     1       4.109  -6.115  -0.977  0.00  0.00    +0.173 C 
ATOM     22  C   UNL     1       2.589  -6.100  -0.698  0.00  0.00    +0.177 C 
ATOM     23  C   UNL     1       1.800  -5.456  -1.848  0.00  0.00    +0.166 C 
BRANCH  23  24
ATOM     24  O   UNL     1       0.390  -5.463  -1.545  0.00  0.00    -0.387 OA
ATOM     25  H   UNL     1       0.130  -4.549  -1.332  0.00  0.00    +0.210 HD
ENDBRANCH  23  24
BRANCH  22  26
ATOM     26  O   UNL     1       2.132  -7.457  -0.526  0.00  0.00    -0.386 OA
ATOM     27  H   UNL     1       2.442  -7.767   0.345  0.00  0.00    +0.210 HD
ENDBRANCH  22  26
BRANCH  21  28
ATOM     28  O   UNL     1       4.820  -6.072   0.263  0.00  0.00    -0.385 OA
ATOM     29  H   UNL     1       5.012  -5.137   0.453  0.00  0.00    +0.210 HD
ENDBRANCH  21  28
BRANCH  20  30
ATOM     30  C   UNL     1       6.098  -5.065  -2.145  0.00  0.00    +0.189 C 
BRANCH  30  31
ATOM     31  O   UNL     1       6.891  -4.510  -1.103  0.00  0.00    -0.391 OA
ATOM     32  H   UNL     1       7.793  -4.851  -1.226  0.00  0.00    +0.210 HD
ENDBRANCH  30  31
ENDBRANCH  20  30
ENDBRANCH   1  18
TORSDOF 12
ENDMDL
