MODEL 1
REMARK VINA RESULT:    -8.958      0.000      0.000
REMARK INTER + INTRA:         -16.572
REMARK INTER:                 -14.719
REMARK INTRA:                  -1.853
REMARK UNBOUND:                -1.853
REMARK  Name = 456557
REMARK  15 active torsions:
REMARK  status: ('A' for Active; 'I' for Inactive)
REMARK    1  A    between atoms: O_2  and  C_17
REMARK    2  A    between atoms: O_3  and  C_18
REMARK    3  A    between atoms: O_4  and  C_22
REMARK    4  A    between atoms: O_7  and  C_27
REMARK    5  A    between atoms: O_10  and  C_35
REMARK    6  A    between atoms: N_11  and  C_19
REMARK    7  A    between atoms: N_12  and  CA_20
REMARK    8  A    between atoms: N_13  and  CA_21
REMARK    9  A    between atoms: C_16  and  CA_20
REMARK   10  A    between atoms: CA_20  and  C_22
REMARK   11  A    between atoms: CA_21  and  C_23
REMARK   12  A    between atoms: CA_21  and  C_24
REMARK   13  A    between atoms: C_23  and  C_27
REMARK   14  A    between atoms: C_23  and  C_28
REMARK   15  A    between atoms: C_27  and  C_30
REMARK                            x       y       z     vdW  Elec       q    Type
REMARK                         _______ _______ _______ _____ _____    ______ ____
ROOT
ATOM      1  CA  UNL     1      -1.099   4.138  -2.505  0.00  0.00    +0.213 C 
ENDROOT
BRANCH   1   3
ATOM      2  O   UNL     1       0.597   4.000  -0.710  0.00  0.00    -0.345 OA
ATOM      3  C   UNL     1      -0.120   4.916  -1.591  0.00  0.00    +0.183 C 
ATOM      4  C   UNL     1       0.976   5.665  -2.350  0.00  0.00    +0.178 C 
ATOM      5  C   UNL     1       2.106   4.645  -2.441  0.00  0.00    +0.195 C 
ATOM      6  C   UNL     1       1.999   3.998  -1.059  0.00  0.00    +0.255 C 
BRANCH   6   9
ATOM      7  O   UNL     1       4.756   3.316  -1.105  0.00  0.00    -0.246 OA
ATOM      8  O   UNL     1       3.823  -1.095  -1.399  0.00  0.00    -0.268 OA
ATOM      9  N   UNL     1       2.547   2.647  -0.903  0.00  0.00    -0.271 N 
ATOM     10  N   UNL     1       4.300   1.109  -1.074  0.00  0.00    -0.275 N 
ATOM     11  C   UNL     1       3.911   2.423  -1.013  0.00  0.00    +0.331 A 
ATOM     12  C   UNL     1       1.669   1.597  -0.690  0.00  0.00    +0.098 A 
ATOM     13  C   UNL     1       2.059   0.322  -0.757  0.00  0.00    +0.088 A 
ATOM     14  C   UNL     1       3.459   0.034  -1.102  0.00  0.00    +0.254 A 
ATOM     15  H   UNL     1       5.264   0.928  -1.307  0.00  0.00    +0.173 HD
ENDBRANCH   6   9
BRANCH   4  16
ATOM     16  O   UNL     1       1.510   6.769  -1.577  0.00  0.00    -0.386 OA
ATOM     17  H   UNL     1       2.306   7.114  -2.027  0.00  0.00    +0.210 HD
ENDBRANCH   4  16
BRANCH   5  18
ATOM     18  O   UNL     1       3.358   5.302  -2.644  0.00  0.00    -0.385 OA
ATOM     19  H   UNL     1       3.172   6.264  -2.546  0.00  0.00    +0.210 HD
ENDBRANCH   5  18
ENDBRANCH   1   3
BRANCH   1  21
ATOM     20  O   UNL     1      -2.382   4.109  -5.084  0.00  0.00    -0.274 OA
ATOM     21  N   UNL     1      -2.325   4.848  -2.921  0.00  0.00    -0.299 N 
ATOM     22  C   UNL     1      -2.782   4.884  -4.226  0.00  0.00    +0.231 C 
ATOM     23  H   UNL     1      -2.667   5.620  -2.353  0.00  0.00    +0.150 HD
BRANCH  22  24
ATOM     24  CA  UNL     1      -3.811   6.020  -4.531  0.00  0.00    +0.143 C 
BRANCH  24  25
ATOM     25  N   UNL     1      -3.910   6.154  -6.015  0.00  0.00    -0.320 NA
ATOM     26  H1  UNL     1      -3.450   5.347  -6.441  0.00  0.00    +0.119 HD
ATOM     27  H2  UNL     1      -4.894   6.044  -6.268  0.00  0.00    +0.119 HD
ENDBRANCH  24  25
BRANCH  24  28
ATOM     28  C   UNL     1      -5.207   5.749  -3.899  0.00  0.00    +0.046 C 
ATOM     29  C   UNL     1      -5.795   4.371  -4.288  0.00  0.00    +0.012 C 
BRANCH  28  30
ATOM     30  C   UNL     1      -6.216   6.906  -4.159  0.00  0.00    +0.168 C 
BRANCH  30  32
ATOM     31  N   UNL     1      -7.879   6.397  -2.388  0.00  0.00    -0.254 NA
ATOM     32  C   UNL     1      -7.093   7.327  -2.988  0.00  0.00    +0.070 A 
ATOM     33  C   UNL     1      -7.026   8.642  -2.521  0.00  0.00    +0.029 A 
ATOM     34  C   UNL     1      -7.772   9.008  -1.402  0.00  0.00    +0.049 A 
ATOM     35  C   UNL     1      -8.580   6.774  -1.297  0.00  0.00    +0.156 A 
ATOM     36  C   UNL     1      -8.550   8.054  -0.772  0.00  0.00    +0.135 A 
BRANCH  36  37
ATOM     37  O   UNL     1      -9.246   8.409   0.343  0.00  0.00    -0.505 OA
ATOM     38  H   UNL     1      -8.828   7.992   1.114  0.00  0.00    +0.292 HD
ENDBRANCH  36  37
ENDBRANCH  30  32
BRANCH  30  39
ATOM     39  O   UNL     1      -5.505   8.061  -4.629  0.00  0.00    -0.385 OA
ATOM     40  H   UNL     1      -5.835   8.246  -5.525  0.00  0.00    +0.210 HD
ENDBRANCH  30  39
ENDBRANCH  28  30
ENDBRANCH  24  28
ENDBRANCH  22  24
ENDBRANCH   1  21
BRANCH   1  42
ATOM     41  OXT UNL     1      -1.461   1.714  -2.343  0.00  0.00    -0.249 OA
ATOM     42  C   UNL     1      -1.505   2.820  -1.816  0.00  0.00    +0.328 C 
BRANCH  42  43
ATOM     43  O   UNL     1      -1.910   2.961  -0.534  0.00  0.00    -0.479 OA
ATOM     44  H   UNL     1      -2.892   2.942  -0.420  0.00  0.00    +0.295 HD
ENDBRANCH  42  43
ENDBRANCH   1  42
TORSDOF 14
ENDMDL
MODEL 2
REMARK VINA RESULT:    -8.951      1.520      1.801
REMARK INTER + INTRA:         -16.561
REMARK INTER:                 -14.492
REMARK INTRA:                  -2.069
REMARK UNBOUND:                -1.853
REMARK  Name = 456557
REMARK  15 active torsions:
REMARK  status: ('A' for Active; 'I' for Inactive)
REMARK    1  A    between atoms: O_2  and  C_17
REMARK    2  A    between atoms: O_3  and  C_18
REMARK    3  A    between atoms: O_4  and  C_22
REMARK    4  A    between atoms: O_7  and  C_27
REMARK    5  A    between atoms: O_10  and  C_35
REMARK    6  A    between atoms: N_11  and  C_19
REMARK    7  A    between atoms: N_12  and  CA_20
REMARK    8  A    between atoms: N_13  and  CA_21
REMARK    9  A    between atoms: C_16  and  CA_20
REMARK   10  A    between atoms: CA_20  and  C_22
REMARK   11  A    between atoms: CA_21  and  C_23
REMARK   12  A    between atoms: CA_21  and  C_24
REMARK   13  A    between atoms: C_23  and  C_27
REMARK   14  A    between atoms: C_23  and  C_28
REMARK   15  A    between atoms: C_27  and  C_30
REMARK                            x       y       z     vdW  Elec       q    Type
REMARK                         _______ _______ _______ _____ _____    ______ ____
ROOT
ATOM      1  CA  UNL     1      -2.333   2.289  -1.838  0.00  0.00    +0.213 C 
ENDROOT
BRANCH   1   3
ATOM      2  O   UNL     1      -0.486   2.397  -0.197  0.00  0.00    -0.345 OA
ATOM      3  C   UNL     1      -1.492   3.187  -0.896  0.00  0.00    +0.183 C 
ATOM      4  C   UNL     1      -0.700   4.276  -1.620  0.00  0.00    +0.178 C 
ATOM      5  C   UNL     1       0.634   3.602  -1.924  0.00  0.00    +0.195 C 
ATOM      6  C   UNL     1       0.831   2.799  -0.637  0.00  0.00    +0.255 C 
BRANCH   6   9
ATOM      7  O   UNL     1       3.669   2.858  -0.542  0.00  0.00    -0.246 OA
ATOM      8  O   UNL     1       3.960  -1.470  -1.809  0.00  0.00    -0.268 OA
ATOM      9  N   UNL     1       1.712   1.628  -0.701  0.00  0.00    -0.271 N 
ATOM     10  N   UNL     1       3.817   0.656  -1.001  0.00  0.00    -0.275 N 
ATOM     11  C   UNL     1       3.090   1.784  -0.716  0.00  0.00    +0.331 A 
ATOM     12  C   UNL     1       1.137   0.371  -0.793  0.00  0.00    +0.098 A 
ATOM     13  C   UNL     1       1.855  -0.718  -1.075  0.00  0.00    +0.088 A 
ATOM     14  C   UNL     1       3.295  -0.562  -1.329  0.00  0.00    +0.254 A 
ATOM     15  H   UNL     1       4.804   0.778  -1.168  0.00  0.00    +0.173 HD
ENDBRANCH   6   9
BRANCH   4  16
ATOM     16  O   UNL     1      -0.384   5.386  -0.744  0.00  0.00    -0.386 OA
ATOM     17  H   UNL     1       0.193   5.066  -0.024  0.00  0.00    +0.210 HD
ENDBRANCH   4  16
BRANCH   5  18
ATOM     18  O   UNL     1       1.655   4.580  -2.122  0.00  0.00    -0.385 OA
ATOM     19  H   UNL     1       1.197   5.373  -2.483  0.00  0.00    +0.210 HD
ENDBRANCH   5  18
ENDBRANCH   1   3
BRANCH   1  21
ATOM     20  O   UNL     1      -3.154   3.225  -4.435  0.00  0.00    -0.274 OA
ATOM     21  N   UNL     1      -3.655   2.807  -2.244  0.00  0.00    -0.299 N 
ATOM     22  C   UNL     1      -3.908   3.367  -3.482  0.00  0.00    +0.231 C 
ATOM     23  H   UNL     1      -4.313   3.100  -1.525  0.00  0.00    +0.150 HD
BRANCH  22  24
ATOM     24  CA  UNL     1      -5.206   4.235  -3.557  0.00  0.00    +0.143 C 
BRANCH  24  25
ATOM     25  N   UNL     1      -6.148   3.729  -2.515  0.00  0.00    -0.320 NA
ATOM     26  H1  UNL     1      -7.102   3.934  -2.819  0.00  0.00    +0.119 HD
ATOM     27  H2  UNL     1      -6.096   2.708  -2.523  0.00  0.00    +0.119 HD
ENDBRANCH  24  25
BRANCH  24  28
ATOM     28  C   UNL     1      -4.922   5.753  -3.364  0.00  0.00    +0.046 C 
ATOM     29  C   UNL     1      -4.438   6.106  -1.937  0.00  0.00    +0.012 C 
BRANCH  28  30
ATOM     30  C   UNL     1      -6.117   6.647  -3.810  0.00  0.00    +0.168 C 
BRANCH  30  32
ATOM     31  N   UNL     1      -7.855   6.276  -2.077  0.00  0.00    -0.254 NA
ATOM     32  C   UNL     1      -7.039   7.157  -2.712  0.00  0.00    +0.070 A 
ATOM     33  C   UNL     1      -6.984   8.503  -2.342  0.00  0.00    +0.029 A 
ATOM     34  C   UNL     1      -7.774   8.954  -1.286  0.00  0.00    +0.049 A 
ATOM     35  C   UNL     1      -8.598   6.736  -1.047  0.00  0.00    +0.156 A 
ATOM     36  C   UNL     1      -8.583   8.051  -0.619  0.00  0.00    +0.135 A 
BRANCH  36  37
ATOM     37  O   UNL     1      -9.322   8.491   0.436  0.00  0.00    -0.505 OA
ATOM     38  H   UNL     1     -10.220   8.129   0.357  0.00  0.00    +0.292 HD
ENDBRANCH  36  37
ENDBRANCH  30  32
BRANCH  30  39
ATOM     39  O   UNL     1      -5.619   7.776  -4.543  0.00  0.00    -0.385 OA
ATOM     40  H   UNL     1      -5.721   7.564  -5.486  0.00  0.00    +0.210 HD
ENDBRANCH  30  39
ENDBRANCH  28  30
ENDBRANCH  24  28
ENDBRANCH  22  24
ENDBRANCH   1  21
BRANCH   1  42
ATOM     41  OXT UNL     1      -2.313  -0.165  -1.744  0.00  0.00    -0.249 OA
ATOM     42  C   UNL     1      -2.527   0.905  -1.187  0.00  0.00    +0.328 C 
BRANCH  42  43
ATOM     43  O   UNL     1      -2.944   0.945   0.099  0.00  0.00    -0.479 OA
ATOM     44  H   UNL     1      -2.512   1.653   0.638  0.00  0.00    +0.295 HD
ENDBRANCH  42  43
ENDBRANCH   1  42
TORSDOF 14
ENDMDL
MODEL 3
REMARK VINA RESULT:    -8.774      2.398      9.604
REMARK INTER + INTRA:         -16.270
REMARK INTER:                 -14.316
REMARK INTRA:                  -1.954
REMARK UNBOUND:                -1.853
REMARK  Name = 456557
REMARK  15 active torsions:
REMARK  status: ('A' for Active; 'I' for Inactive)
REMARK    1  A    between atoms: O_2  and  C_17
REMARK    2  A    between atoms: O_3  and  C_18
REMARK    3  A    between atoms: O_4  and  C_22
REMARK    4  A    between atoms: O_7  and  C_27
REMARK    5  A    between atoms: O_10  and  C_35
REMARK    6  A    between atoms: N_11  and  C_19
REMARK    7  A    between atoms: N_12  and  CA_20
REMARK    8  A    between atoms: N_13  and  CA_21
REMARK    9  A    between atoms: C_16  and  CA_20
REMARK   10  A    between atoms: CA_20  and  C_22
REMARK   11  A    between atoms: CA_21  and  C_23
REMARK   12  A    between atoms: CA_21  and  C_24
REMARK   13  A    between atoms: C_23  and  C_27
REMARK   14  A    between atoms: C_23  and  C_28
REMARK   15  A    between atoms: C_27  and  C_30
REMARK                            x       y       z     vdW  Elec       q    Type
REMARK                         _______ _______ _______ _____ _____    ______ ____
ROOT
ATOM      1  CA  UNL     1      -1.627   2.451  -1.466  0.00  0.00    +0.213 C 
ENDROOT
BRANCH   1   3
ATOM      2  O   UNL     1      -3.606   2.463  -2.949  0.00  0.00    -0.345 OA
ATOM      3  C   UNL     1      -2.148   2.497  -2.924  0.00  0.00    +0.183 C 
ATOM      4  C   UNL     1      -1.775   3.775  -3.677  0.00  0.00    +0.178 C 
ATOM      5  C   UNL     1      -2.943   4.712  -3.387  0.00  0.00    +0.195 C 
ATOM      6  C   UNL     1      -4.107   3.722  -3.452  0.00  0.00    +0.255 C 
BRANCH   6   9
ATOM      7  O   UNL     1      -6.703   2.736  -4.046  0.00  0.00    -0.246 OA
ATOM      8  O   UNL     1      -8.657   5.826  -1.391  0.00  0.00    -0.268 OA
ATOM      9  N   UNL     1      -5.339   4.083  -2.745  0.00  0.00    -0.271 N 
ATOM     10  N   UNL     1      -7.671   4.158  -2.590  0.00  0.00    -0.275 N 
ATOM     11  C   UNL     1      -6.565   3.591  -3.170  0.00  0.00    +0.331 A 
ATOM     12  C   UNL     1      -5.257   4.961  -1.677  0.00  0.00    +0.098 A 
ATOM     13  C   UNL     1      -6.342   5.509  -1.124  0.00  0.00    +0.088 A 
ATOM     14  C   UNL     1      -7.658   5.191  -1.698  0.00  0.00    +0.254 A 
ATOM     15  H   UNL     1      -8.567   3.927  -2.991  0.00  0.00    +0.173 HD
ENDBRANCH   6   9
BRANCH   4  16
ATOM     16  O   UNL     1      -1.782   3.577  -5.112  0.00  0.00    -0.386 OA
ATOM     17  H   UNL     1      -1.487   2.667  -5.307  0.00  0.00    +0.210 HD
ENDBRANCH   4  16
BRANCH   5  18
ATOM     18  O   UNL     1      -3.029   5.727  -4.387  0.00  0.00    -0.385 OA
ATOM     19  H   UNL     1      -2.655   6.539  -3.975  0.00  0.00    +0.210 HD
ENDBRANCH   5  18
ENDBRANCH   1   3
BRANCH   1  21
ATOM     20  O   UNL     1       0.251   4.493  -0.688  0.00  0.00    -0.274 OA
ATOM     21  N   UNL     1      -0.167   2.325  -1.287  0.00  0.00    -0.299 N 
ATOM     22  C   UNL     1       0.670   3.401  -1.050  0.00  0.00    +0.231 C 
ATOM     23  H   UNL     1       0.314   1.521  -1.684  0.00  0.00    +0.150 HD
BRANCH  22  24
ATOM     24  CA  UNL     1       2.183   3.130  -1.328  0.00  0.00    +0.143 C 
BRANCH  24  25
ATOM     25  N   UNL     1       2.784   4.400  -1.834  0.00  0.00    -0.320 NA
ATOM     26  H1  UNL     1       2.759   4.381  -2.855  0.00  0.00    +0.119 HD
ATOM     27  H2  UNL     1       2.151   5.161  -1.581  0.00  0.00    +0.119 HD
ENDBRANCH  24  25
BRANCH  24  28
ATOM     28  C   UNL     1       2.940   2.617  -0.068  0.00  0.00    +0.046 C 
ATOM     29  C   UNL     1       3.807   3.706   0.608  0.00  0.00    +0.012 C 
BRANCH  28  30
ATOM     30  C   UNL     1       3.752   1.317  -0.346  0.00  0.00    +0.168 C 
BRANCH  30  32
ATOM     31  N   UNL     1       1.667  -0.023  -0.216  0.00  0.00    -0.254 NA
ATOM     32  C   UNL     1       2.950   0.060  -0.651  0.00  0.00    +0.070 A 
ATOM     33  C   UNL     1       3.531  -0.952  -1.419  0.00  0.00    +0.029 A 
ATOM     34  C   UNL     1       2.771  -2.070  -1.762  0.00  0.00    +0.049 A 
ATOM     35  C   UNL     1       0.949  -1.109  -0.574  0.00  0.00    +0.156 A 
ATOM     36  C   UNL     1       1.455  -2.142  -1.343  0.00  0.00    +0.135 A 
BRANCH  36  37
ATOM     37  O   UNL     1       0.708  -3.218  -1.714  0.00  0.00    -0.505 OA
ATOM     38  H   UNL     1       0.992  -3.501  -2.599  0.00  0.00    +0.292 HD
ENDBRANCH  36  37
ENDBRANCH  30  32
BRANCH  30  39
ATOM     39  O   UNL     1       4.662   1.548  -1.433  0.00  0.00    -0.385 OA
ATOM     40  H   UNL     1       4.359   2.355  -1.883  0.00  0.00    +0.210 HD
ENDBRANCH  30  39
ENDBRANCH  28  30
ENDBRANCH  24  28
ENDBRANCH  22  24
ENDBRANCH   1  21
BRANCH   1  42
ATOM     41  OXT UNL     1      -2.344   0.131  -1.097  0.00  0.00    -0.249 OA
ATOM     42  C   UNL     1      -2.315   1.294  -0.713  0.00  0.00    +0.328 C 
BRANCH  42  43
ATOM     43  O   UNL     1      -2.889   1.653   0.458  0.00  0.00    -0.479 OA
ATOM     44  H   UNL     1      -3.827   1.956   0.367  0.00  0.00    +0.295 HD
ENDBRANCH  42  43
ENDBRANCH   1  42
TORSDOF 14
ENDMDL
MODEL 4
REMARK VINA RESULT:    -8.627      2.600      3.909
REMARK INTER + INTRA:         -16.028
REMARK INTER:                 -14.695
REMARK INTRA:                  -1.332
REMARK UNBOUND:                -1.853
REMARK  Name = 456557
REMARK  15 active torsions:
REMARK  status: ('A' for Active; 'I' for Inactive)
REMARK    1  A    between atoms: O_2  and  C_17
REMARK    2  A    between atoms: O_3  and  C_18
REMARK    3  A    between atoms: O_4  and  C_22
REMARK    4  A    between atoms: O_7  and  C_27
REMARK    5  A    between atoms: O_10  and  C_35
REMARK    6  A    between atoms: N_11  and  C_19
REMARK    7  A    between atoms: N_12  and  CA_20
REMARK    8  A    between atoms: N_13  and  CA_21
REMARK    9  A    between atoms: C_16  and  CA_20
REMARK   10  A    between atoms: CA_20  and  C_22
REMARK   11  A    between atoms: CA_21  and  C_23
REMARK   12  A    between atoms: CA_21  and  C_24
REMARK   13  A    between atoms: C_23  and  C_27
REMARK   14  A    between atoms: C_23  and  C_28
REMARK   15  A    between atoms: C_27  and  C_30
REMARK                            x       y       z     vdW  Elec       q    Type
REMARK                         _______ _______ _______ _____ _____    ______ ____
ROOT
ATOM      1  CA  UNL     1      -1.539   3.977  -3.683  0.00  0.00    +0.213 C 
ENDROOT
BRANCH   1   3
ATOM      2  O   UNL     1       0.600   3.970  -2.441  0.00  0.00    -0.345 OA
ATOM      3  C   UNL     1      -0.773   3.478  -2.433  0.00  0.00    +0.183 C 
ATOM      4  C   UNL     1      -1.356   3.973  -1.108  0.00  0.00    +0.178 C 
ATOM      5  C   UNL     1      -0.612   5.280  -0.859  0.00  0.00    +0.195 C 
ATOM      6  C   UNL     1       0.786   4.893  -1.345  0.00  0.00    +0.255 C 
BRANCH   6   9
ATOM      7  O   UNL     1       2.595   6.277   0.352  0.00  0.00    -0.246 OA
ATOM      8  O   UNL     1       3.337   9.458  -2.770  0.00  0.00    -0.268 OA
ATOM      9  N   UNL     1       1.682   5.978  -1.757  0.00  0.00    -0.271 N 
ATOM     10  N   UNL     1       3.103   7.767  -1.261  0.00  0.00    -0.275 N 
ATOM     11  C   UNL     1       2.474   6.629  -0.823  0.00  0.00    +0.331 A 
ATOM     12  C   UNL     1       1.684   6.366  -3.086  0.00  0.00    +0.098 A 
ATOM     13  C   UNL     1       2.297   7.478  -3.499  0.00  0.00    +0.088 A 
ATOM     14  C   UNL     1       2.959   8.327  -2.497  0.00  0.00    +0.254 A 
ATOM     15  H   UNL     1       3.557   8.336  -0.564  0.00  0.00    +0.173 HD
ENDBRANCH   6   9
BRANCH   4  16
ATOM     16  O   UNL     1      -1.000   3.106  -0.004  0.00  0.00    -0.386 OA
ATOM     17  H   UNL     1      -1.222   2.185  -0.241  0.00  0.00    +0.210 HD
ENDBRANCH   4  16
BRANCH   5  18
ATOM     18  O   UNL     1      -0.637   5.613   0.529  0.00  0.00    -0.385 OA
ATOM     19  H   UNL     1      -0.658   4.753   1.009  0.00  0.00    +0.210 HD
ENDBRANCH   5  18
ENDBRANCH   1   3
BRANCH   1  21
ATOM     20  O   UNL     1      -3.383   5.143  -5.564  0.00  0.00    -0.274 OA
ATOM     21  N   UNL     1      -3.001   4.133  -3.549  0.00  0.00    -0.299 N 
ATOM     22  C   UNL     1      -3.780   4.837  -4.448  0.00  0.00    +0.231 C 
ATOM     23  H   UNL     1      -3.425   4.048  -2.627  0.00  0.00    +0.150 HD
BRANCH  22  24
ATOM     24  CA  UNL     1      -5.187   5.255  -3.912  0.00  0.00    +0.143 C 
BRANCH  24  25
ATOM     25  N   UNL     1      -5.594   4.252  -2.882  0.00  0.00    -0.320 NA
ATOM     26  H1  UNL     1      -4.749   3.814  -2.510  0.00  0.00    +0.119 HD
ATOM     27  H2  UNL     1      -5.980   4.767  -2.088  0.00  0.00    +0.119 HD
ENDBRANCH  24  25
BRANCH  24  28
ATOM     28  C   UNL     1      -5.200   6.696  -3.324  0.00  0.00    +0.046 C 
ATOM     29  C   UNL     1      -4.808   6.749  -1.829  0.00  0.00    +0.012 C 
BRANCH  28  30
ATOM     30  C   UNL     1      -6.539   7.443  -3.601  0.00  0.00    +0.168 C 
BRANCH  30  32
ATOM     31  N   UNL     1      -8.092   6.838  -1.761  0.00  0.00    -0.254 NA
ATOM     32  C   UNL     1      -7.382   7.811  -2.388  0.00  0.00    +0.070 A 
ATOM     33  C   UNL     1      -7.359   9.124  -1.912  0.00  0.00    +0.029 A 
ATOM     34  C   UNL     1      -8.071   9.444  -0.758  0.00  0.00    +0.049 A 
ATOM     35  C   UNL     1      -8.760   7.172  -0.636  0.00  0.00    +0.156 A 
ATOM     36  C   UNL     1      -8.771   8.447  -0.102  0.00  0.00    +0.135 A 
BRANCH  36  37
ATOM     37  O   UNL     1      -9.433   8.760   1.047  0.00  0.00    -0.505 OA
ATOM     38  H   UNL     1      -9.479   9.727   1.123  0.00  0.00    +0.292 HD
ENDBRANCH  36  37
ENDBRANCH  30  32
BRANCH  30  39
ATOM     39  O   UNL     1      -6.271   8.640  -4.345  0.00  0.00    -0.385 OA
ATOM     40  H   UNL     1      -6.091   8.366  -5.260  0.00  0.00    +0.210 HD
ENDBRANCH  30  39
ENDBRANCH  28  30
ENDBRANCH  24  28
ENDBRANCH  22  24
ENDBRANCH   1  21
BRANCH   1  42
ATOM     41  OXT UNL     1      -1.949   2.075  -5.181  0.00  0.00    -0.249 OA
ATOM     42  C   UNL     1      -1.253   3.034  -4.869  0.00  0.00    +0.328 C 
BRANCH  42  43
ATOM     43  O   UNL     1      -0.153   3.355  -5.587  0.00  0.00    -0.479 OA
ATOM     44  H   UNL     1       0.543   2.652  -5.587  0.00  0.00    +0.295 HD
ENDBRANCH  42  43
ENDBRANCH   1  42
TORSDOF 14
ENDMDL
MODEL 5
REMARK VINA RESULT:    -8.586      2.172      9.049
REMARK INTER + INTRA:         -15.960
REMARK INTER:                 -13.878
REMARK INTRA:                  -2.082
REMARK UNBOUND:                -1.853
REMARK  Name = 456557
REMARK  15 active torsions:
REMARK  status: ('A' for Active; 'I' for Inactive)
REMARK    1  A    between atoms: O_2  and  C_17
REMARK    2  A    between atoms: O_3  and  C_18
REMARK    3  A    between atoms: O_4  and  C_22
REMARK    4  A    between atoms: O_7  and  C_27
REMARK    5  A    between atoms: O_10  and  C_35
REMARK    6  A    between atoms: N_11  and  C_19
REMARK    7  A    between atoms: N_12  and  CA_20
REMARK    8  A    between atoms: N_13  and  CA_21
REMARK    9  A    between atoms: C_16  and  CA_20
REMARK   10  A    between atoms: CA_20  and  C_22
REMARK   11  A    between atoms: CA_21  and  C_23
REMARK   12  A    between atoms: CA_21  and  C_24
REMARK   13  A    between atoms: C_23  and  C_27
REMARK   14  A    between atoms: C_23  and  C_28
REMARK   15  A    between atoms: C_27  and  C_30
REMARK                            x       y       z     vdW  Elec       q    Type
REMARK                         _______ _______ _______ _____ _____    ______ ____
ROOT
ATOM      1  CA  UNL     1      -1.839   2.905  -1.286  0.00  0.00    +0.213 C 
ENDROOT
BRANCH   1   3
ATOM      2  O   UNL     1      -3.795   3.094  -2.789  0.00  0.00    -0.345 OA
ATOM      3  C   UNL     1      -2.484   2.475  -2.628  0.00  0.00    +0.183 C 
ATOM      4  C   UNL     1      -1.694   2.908  -3.864  0.00  0.00    +0.178 C 
ATOM      5  C   UNL     1      -2.275   4.278  -4.195  0.00  0.00    +0.195 C 
ATOM      6  C   UNL     1      -3.752   4.026  -3.893  0.00  0.00    +0.255 C 
BRANCH   6   9
ATOM      7  O   UNL     1      -4.687   5.927  -5.784  0.00  0.00    -0.246 OA
ATOM      8  O   UNL     1      -6.025   8.752  -2.521  0.00  0.00    -0.268 OA
ATOM      9  N   UNL     1      -4.587   5.193  -3.589  0.00  0.00    -0.271 N 
ATOM     10  N   UNL     1      -5.515   7.260  -4.166  0.00  0.00    -0.275 N 
ATOM     11  C   UNL     1      -4.926   6.095  -4.587  0.00  0.00    +0.331 A 
ATOM     12  C   UNL     1      -4.988   5.397  -2.279  0.00  0.00    +0.098 A 
ATOM     13  C   UNL     1      -5.557   6.538  -1.881  0.00  0.00    +0.088 A 
ATOM     14  C   UNL     1      -5.726   7.617  -2.865  0.00  0.00    +0.254 A 
ATOM     15  H   UNL     1      -5.629   7.989  -4.853  0.00  0.00    +0.173 HD
ENDBRANCH   6   9
BRANCH   4  16
ATOM     16  O   UNL     1      -1.987   2.073  -5.011  0.00  0.00    -0.386 OA
ATOM     17  H   UNL     1      -1.294   2.209  -5.686  0.00  0.00    +0.210 HD
ENDBRANCH   4  16
BRANCH   5  18
ATOM     18  O   UNL     1      -2.042   4.601  -5.566  0.00  0.00    -0.385 OA
ATOM     19  H   UNL     1      -1.173   5.064  -5.587  0.00  0.00    +0.210 HD
ENDBRANCH   5  18
ENDBRANCH   1   3
BRANCH   1  21
ATOM     20  O   UNL     1      -0.979   5.553  -0.548  0.00  0.00    -0.274 OA
ATOM     21  N   UNL     1      -0.479   3.473  -1.356  0.00  0.00    -0.299 N 
ATOM     22  C   UNL     1      -0.193   4.804  -1.112  0.00  0.00    +0.231 C 
ATOM     23  H   UNL     1       0.224   3.008  -1.926  0.00  0.00    +0.150 HD
BRANCH  22  24
ATOM     24  CA  UNL     1       1.189   5.290  -1.656  0.00  0.00    +0.143 C 
BRANCH  24  25
ATOM     25  N   UNL     1       0.937   6.044  -2.921  0.00  0.00    -0.320 NA
ATOM     26  H1  UNL     1       1.731   5.894  -3.547  0.00  0.00    +0.119 HD
ATOM     27  H2  UNL     1       0.153   5.592  -3.396  0.00  0.00    +0.119 HD
ENDBRANCH  24  25
BRANCH  24  28
ATOM     28  C   UNL     1       1.963   6.165  -0.628  0.00  0.00    +0.046 C 
ATOM     29  C   UNL     1       2.798   7.288  -1.289  0.00  0.00    +0.012 C 
BRANCH  28  30
ATOM     30  C   UNL     1       2.814   5.314   0.361  0.00  0.00    +0.168 C 
BRANCH  30  32
ATOM     31  N   UNL     1       2.510   2.855   0.212  0.00  0.00    -0.254 NA
ATOM     32  C   UNL     1       3.256   3.940  -0.121  0.00  0.00    +0.070 A 
ATOM     33  C   UNL     1       4.381   3.833  -0.942  0.00  0.00    +0.029 A 
ATOM     34  C   UNL     1       4.742   2.584  -1.445  0.00  0.00    +0.049 A 
ATOM     35  C   UNL     1       2.874   1.660  -0.301  0.00  0.00    +0.156 A 
ATOM     36  C   UNL     1       3.967   1.483  -1.130  0.00  0.00    +0.135 A 
BRANCH  36  37
ATOM     37  O   UNL     1       4.304   0.273  -1.657  0.00  0.00    -0.505 OA
ATOM     38  H   UNL     1       3.491  -0.182  -1.931  0.00  0.00    +0.292 HD
ENDBRANCH  36  37
ENDBRANCH  30  32
BRANCH  30  39
ATOM     39  O   UNL     1       3.981   6.057   0.744  0.00  0.00    -0.385 OA
ATOM     40  H   UNL     1       4.718   5.423   0.773  0.00  0.00    +0.210 HD
ENDBRANCH  30  39
ENDBRANCH  28  30
ENDBRANCH  24  28
ENDBRANCH  22  24
ENDBRANCH   1  21
BRANCH   1  42
ATOM     41  OXT UNL     1      -0.812   1.101   0.026  0.00  0.00    -0.249 OA
ATOM     42  C   UNL     1      -1.821   1.704  -0.319  0.00  0.00    +0.328 C 
BRANCH  42  43
ATOM     43  O   UNL     1      -3.036   1.355   0.162  0.00  0.00    -0.479 OA
ATOM     44  H   UNL     1      -3.231   0.388   0.092  0.00  0.00    +0.295 HD
ENDBRANCH  42  43
ENDBRANCH   1  42
TORSDOF 14
ENDMDL
MODEL 6
REMARK VINA RESULT:    -8.582      5.550      9.415
REMARK INTER + INTRA:         -15.954
REMARK INTER:                 -13.548
REMARK INTRA:                  -2.406
REMARK UNBOUND:                -1.853
REMARK  Name = 456557
REMARK  15 active torsions:
REMARK  status: ('A' for Active; 'I' for Inactive)
REMARK    1  A    between atoms: O_2  and  C_17
REMARK    2  A    between atoms: O_3  and  C_18
REMARK    3  A    between atoms: O_4  and  C_22
REMARK    4  A    between atoms: O_7  and  C_27
REMARK    5  A    between atoms: O_10  and  C_35
REMARK    6  A    between atoms: N_11  and  C_19
REMARK    7  A    between atoms: N_12  and  CA_20
REMARK    8  A    between atoms: N_13  and  CA_21
REMARK    9  A    between atoms: C_16  and  CA_20
REMARK   10  A    between atoms: CA_20  and  C_22
REMARK   11  A    between atoms: CA_21  and  C_23
REMARK   12  A    between atoms: CA_21  and  C_24
REMARK   13  A    between atoms: C_23  and  C_27
REMARK   14  A    between atoms: C_23  and  C_28
REMARK   15  A    between atoms: C_27  and  C_30
REMARK                            x       y       z     vdW  Elec       q    Type
REMARK                         _______ _______ _______ _____ _____    ______ ____
ROOT
ATOM      1  CA  UNL     1      -6.622   4.055  -5.192  0.00  0.00    +0.213 C 
ENDROOT
BRANCH   1   3
ATOM      2  O   UNL     1      -5.840   6.129  -4.095  0.00  0.00    -0.345 OA
ATOM      3  C   UNL     1      -5.410   4.849  -4.645  0.00  0.00    +0.183 C 
ATOM      4  C   UNL     1      -4.681   4.155  -3.493  0.00  0.00    +0.178 C 
ATOM      5  C   UNL     1      -5.395   4.681  -2.253  0.00  0.00    +0.195 C 
ATOM      6  C   UNL     1      -5.621   6.136  -2.667  0.00  0.00    +0.255 C 
BRANCH   6   9
ATOM      7  O   UNL     1      -5.866   8.962  -2.523  0.00  0.00    -0.246 OA
ATOM      8  O   UNL     1      -9.136   8.680   0.583  0.00  0.00    -0.268 OA
ATOM      9  N   UNL     1      -6.705   6.866  -2.002  0.00  0.00    -0.271 N 
ATOM     10  N   UNL     1      -7.614   8.825  -1.107  0.00  0.00    -0.275 N 
ATOM     11  C   UNL     1      -6.683   8.251  -1.935  0.00  0.00    +0.331 A 
ATOM     12  C   UNL     1      -7.722   6.141  -1.404  0.00  0.00    +0.098 A 
ATOM     13  C   UNL     1      -8.620   6.711  -0.597  0.00  0.00    +0.088 A 
ATOM     14  C   UNL     1      -8.494   8.148  -0.313  0.00  0.00    +0.254 A 
ATOM     15  H   UNL     1      -7.518   9.812  -0.926  0.00  0.00    +0.173 HD
ENDBRANCH   6   9
BRANCH   4  16
ATOM     16  O   UNL     1      -3.309   4.605  -3.372  0.00  0.00    -0.386 OA
ATOM     17  H   UNL     1      -2.907   4.184  -2.588  0.00  0.00    +0.210 HD
ENDBRANCH   4  16
BRANCH   5  18
ATOM     18  O   UNL     1      -4.557   4.560  -1.104  0.00  0.00    -0.385 OA
ATOM     19  H   UNL     1      -3.636   4.677  -1.433  0.00  0.00    +0.210 HD
ENDBRANCH   5  18
ENDBRANCH   1   3
BRANCH   1  21
ATOM     20  O   UNL     1      -7.982   1.528  -5.438  0.00  0.00    -0.274 OA
ATOM     21  N   UNL     1      -6.326   2.948  -6.123  0.00  0.00    -0.299 N 
ATOM     22  C   UNL     1      -6.948   1.714  -6.065  0.00  0.00    +0.231 C 
ATOM     23  H   UNL     1      -5.422   2.923  -6.590  0.00  0.00    +0.150 HD
BRANCH  22  24
ATOM     24  CA  UNL     1      -6.203   0.567  -6.821  0.00  0.00    +0.143 C 
BRANCH  24  25
ATOM     25  N   UNL     1      -6.861  -0.721  -6.449  0.00  0.00    -0.320 NA
ATOM     26  H1  UNL     1      -6.202  -1.481  -6.628  0.00  0.00    +0.119 HD
ATOM     27  H2  UNL     1      -6.979  -0.723  -5.434  0.00  0.00    +0.119 HD
ENDBRANCH  24  25
BRANCH  24  28
ATOM     28  C   UNL     1      -6.203   0.770  -8.365  0.00  0.00    +0.046 C 
ATOM     29  C   UNL     1      -6.613  -0.501  -9.146  0.00  0.00    +0.012 C 
BRANCH  28  30
ATOM     30  C   UNL     1      -4.863   1.367  -8.889  0.00  0.00    +0.168 C 
BRANCH  30  32
ATOM     31  N   UNL     1      -5.149   3.829  -9.021  0.00  0.00    -0.254 NA
ATOM     32  C   UNL     1      -4.955   2.661  -9.686  0.00  0.00    +0.070 A 
ATOM     33  C   UNL     1      -4.780   2.626 -11.071  0.00  0.00    +0.029 A 
ATOM     34  C   UNL     1      -4.789   3.819 -11.791  0.00  0.00    +0.049 A 
ATOM     35  C   UNL     1      -5.139   4.972  -9.741  0.00  0.00    +0.156 A 
ATOM     36  C   UNL     1      -4.957   5.013 -11.112  0.00  0.00    +0.135 A 
BRANCH  36  37
ATOM     37  O   UNL     1      -4.927   6.177 -11.817  0.00  0.00    -0.505 OA
ATOM     38  H   UNL     1      -5.647   6.162 -12.469  0.00  0.00    +0.292 HD
ENDBRANCH  36  37
ENDBRANCH  30  32
BRANCH  30  39
ATOM     39  O   UNL     1      -3.972   1.579  -7.784  0.00  0.00    -0.385 OA
ATOM     40  H   UNL     1      -4.427   1.248  -6.991  0.00  0.00    +0.210 HD
ENDBRANCH  30  39
ENDBRANCH  28  30
ENDBRANCH  24  28
ENDBRANCH  22  24
ENDBRANCH   1  21
BRANCH   1  42
ATOM     41  OXT UNL     1      -7.562   5.332  -7.068  0.00  0.00    -0.249 OA
ATOM     42  C   UNL     1      -7.601   5.027  -5.882  0.00  0.00    +0.328 C 
BRANCH  42  43
ATOM     43  O   UNL     1      -8.559   5.527  -5.069  0.00  0.00    -0.479 OA
ATOM     44  H   UNL     1      -8.811   4.921  -4.329  0.00  0.00    +0.295 HD
ENDBRANCH  42  43
ENDBRANCH   1  42
TORSDOF 14
ENDMDL
MODEL 7
REMARK VINA RESULT:    -8.577      4.054      8.275
REMARK INTER + INTRA:         -15.946
REMARK INTER:                 -13.768
REMARK INTRA:                  -2.178
REMARK UNBOUND:                -1.853
REMARK  Name = 456557
REMARK  15 active torsions:
REMARK  status: ('A' for Active; 'I' for Inactive)
REMARK    1  A    between atoms: O_2  and  C_17
REMARK    2  A    between atoms: O_3  and  C_18
REMARK    3  A    between atoms: O_4  and  C_22
REMARK    4  A    between atoms: O_7  and  C_27
REMARK    5  A    between atoms: O_10  and  C_35
REMARK    6  A    between atoms: N_11  and  C_19
REMARK    7  A    between atoms: N_12  and  CA_20
REMARK    8  A    between atoms: N_13  and  CA_21
REMARK    9  A    between atoms: C_16  and  CA_20
REMARK   10  A    between atoms: CA_20  and  C_22
REMARK   11  A    between atoms: CA_21  and  C_23
REMARK   12  A    between atoms: CA_21  and  C_24
REMARK   13  A    between atoms: C_23  and  C_27
REMARK   14  A    between atoms: C_23  and  C_28
REMARK   15  A    between atoms: C_27  and  C_30
REMARK                            x       y       z     vdW  Elec       q    Type
REMARK                         _______ _______ _______ _____ _____    ______ ____
ROOT
ATOM      1  CA  UNL     1      -1.221   2.898  -3.806  0.00  0.00    +0.213 C 
ENDROOT
BRANCH   1   3
ATOM      2  O   UNL     1      -3.342   1.728  -3.309  0.00  0.00    -0.345 OA
ATOM      3  C   UNL     1      -2.615   2.982  -3.138  0.00  0.00    +0.183 C 
ATOM      4  C   UNL     1      -2.568   3.202  -1.626  0.00  0.00    +0.178 C 
ATOM      5  C   UNL     1      -2.547   1.786  -1.061  0.00  0.00    +0.195 C 
ATOM      6  C   UNL     1      -3.518   1.096  -2.022  0.00  0.00    +0.255 C 
BRANCH   6   9
ATOM      7  O   UNL     1      -5.572  -0.637  -2.939  0.00  0.00    -0.246 OA
ATOM      8  O   UNL     1      -3.287  -4.305  -1.620  0.00  0.00    -0.268 OA
ATOM      9  N   UNL     1      -3.407  -0.359  -2.164  0.00  0.00    -0.271 N 
ATOM     10  N   UNL     1      -4.363  -2.473  -2.445  0.00  0.00    -0.275 N 
ATOM     11  C   UNL     1      -4.502  -1.113  -2.556  0.00  0.00    +0.331 A 
ATOM     12  C   UNL     1      -2.200  -0.964  -1.854  0.00  0.00    +0.098 A 
ATOM     13  C   UNL     1      -2.080  -2.289  -1.744  0.00  0.00    +0.088 A 
ATOM     14  C   UNL     1      -3.279  -3.120  -1.926  0.00  0.00    +0.254 A 
ATOM     15  H   UNL     1      -5.193  -3.031  -2.578  0.00  0.00    +0.173 HD
ENDBRANCH   6   9
BRANCH   4  16
ATOM     16  O   UNL     1      -3.791   3.800  -1.128  0.00  0.00    -0.386 OA
ATOM     17  H   UNL     1      -4.489   3.118  -1.104  0.00  0.00    +0.210 HD
ENDBRANCH   4  16
BRANCH   5  18
ATOM     18  O   UNL     1      -3.013   1.778   0.289  0.00  0.00    -0.385 OA
ATOM     19  H   UNL     1      -3.202   2.719   0.510  0.00  0.00    +0.210 HD
ENDBRANCH   5  18
ENDBRANCH   1   3
BRANCH   1  21
ATOM     20  O   UNL     1      -0.680   5.686  -3.321  0.00  0.00    -0.274 OA
ATOM     21  N   UNL     1      -0.092   3.491  -3.062  0.00  0.00    -0.299 N 
ATOM     22  C   UNL     1       0.157   4.851  -3.007  0.00  0.00    +0.231 C 
ATOM     23  H   UNL     1       0.731   2.923  -2.876  0.00  0.00    +0.150 HD
BRANCH  22  24
ATOM     24  CA  UNL     1       1.604   5.236  -2.560  0.00  0.00    +0.143 C 
BRANCH  24  25
ATOM     25  N   UNL     1       1.755   6.711  -2.738  0.00  0.00    -0.320 NA
ATOM     26  H1  UNL     1       2.111   6.885  -3.680  0.00  0.00    +0.119 HD
ATOM     27  H2  UNL     1       0.817   7.116  -2.745  0.00  0.00    +0.119 HD
ENDBRANCH  24  25
BRANCH  24  28
ATOM     28  C   UNL     1       1.909   4.816  -1.093  0.00  0.00    +0.046 C 
ATOM     29  C   UNL     1       2.136   6.020  -0.148  0.00  0.00    +0.012 C 
BRANCH  28  30
ATOM     30  C   UNL     1       3.066   3.776  -0.996  0.00  0.00    +0.168 C 
BRANCH  30  32
ATOM     31  N   UNL     1       1.354   1.996  -0.742  0.00  0.00    -0.254 NA
ATOM     32  C   UNL     1       2.664   2.310  -0.912  0.00  0.00    +0.070 A 
ATOM     33  C   UNL     1       3.640   1.324  -1.069  0.00  0.00    +0.029 A 
ATOM     34  C   UNL     1       3.262  -0.018  -1.067  0.00  0.00    +0.049 A 
ATOM     35  C   UNL     1       1.013   0.690  -0.759  0.00  0.00    +0.156 A 
ATOM     36  C   UNL     1       1.924  -0.338  -0.924  0.00  0.00    +0.135 A 
BRANCH  36  37
ATOM     37  O   UNL     1       1.557  -1.648  -0.961  0.00  0.00    -0.505 OA
ATOM     38  H   UNL     1       1.533  -1.936  -1.889  0.00  0.00    +0.292 HD
ENDBRANCH  36  37
ENDBRANCH  30  32
BRANCH  30  39
ATOM     39  O   UNL     1       3.947   3.940  -2.117  0.00  0.00    -0.385 OA
ATOM     40  H   UNL     1       4.494   4.721  -1.930  0.00  0.00    +0.210 HD
ENDBRANCH  30  39
ENDBRANCH  28  30
ENDBRANCH  24  28
ENDBRANCH  22  24
ENDBRANCH   1  21
BRANCH   1  42
ATOM     41  OXT UNL     1      -0.487   3.332  -6.110  0.00  0.00    -0.249 OA
ATOM     42  C   UNL     1      -1.283   3.548  -5.204  0.00  0.00    +0.328 C 
BRANCH  42  43
ATOM     43  O   UNL     1      -2.325   4.390  -5.383  0.00  0.00    -0.479 OA
ATOM     44  H   UNL     1      -2.663   4.416  -6.313  0.00  0.00    +0.295 HD
ENDBRANCH  42  43
ENDBRANCH   1  42
TORSDOF 14
ENDMDL
MODEL 8
REMARK VINA RESULT:    -8.570      4.083     10.000
REMARK INTER + INTRA:         -15.934
REMARK INTER:                 -14.379
REMARK INTRA:                  -1.555
REMARK UNBOUND:                -1.853
REMARK  Name = 456557
REMARK  15 active torsions:
REMARK  status: ('A' for Active; 'I' for Inactive)
REMARK    1  A    between atoms: O_2  and  C_17
REMARK    2  A    between atoms: O_3  and  C_18
REMARK    3  A    between atoms: O_4  and  C_22
REMARK    4  A    between atoms: O_7  and  C_27
REMARK    5  A    between atoms: O_10  and  C_35
REMARK    6  A    between atoms: N_11  and  C_19
REMARK    7  A    between atoms: N_12  and  CA_20
REMARK    8  A    between atoms: N_13  and  CA_21
REMARK    9  A    between atoms: C_16  and  CA_20
REMARK   10  A    between atoms: CA_20  and  C_22
REMARK   11  A    between atoms: CA_21  and  C_23
REMARK   12  A    between atoms: CA_21  and  C_24
REMARK   13  A    between atoms: C_23  and  C_27
REMARK   14  A    between atoms: C_23  and  C_28
REMARK   15  A    between atoms: C_27  and  C_30
REMARK                            x       y       z     vdW  Elec       q    Type
REMARK                         _______ _______ _______ _____ _____    ______ ____
ROOT
ATOM      1  CA  UNL     1      -4.916   2.193  -3.388  0.00  0.00    +0.213 C 
ENDROOT
BRANCH   1   3
ATOM      2  O   UNL     1      -6.560   1.015  -4.813  0.00  0.00    -0.345 OA
ATOM      3  C   UNL     1      -6.003   1.092  -3.467  0.00  0.00    +0.183 C 
ATOM      4  C   UNL     1      -5.483  -0.317  -3.180  0.00  0.00    +0.178 C 
ATOM      5  C   UNL     1      -5.073  -0.832  -4.555  0.00  0.00    +0.195 C 
ATOM      6  C   UNL     1      -6.202  -0.252  -5.409  0.00  0.00    +0.255 C 
BRANCH   6   9
ATOM      7  O   UNL     1      -4.655   1.836  -6.556  0.00  0.00    -0.246 OA
ATOM      8  O   UNL     1      -6.086   0.825 -10.721  0.00  0.00    -0.268 OA
ATOM      9  N   UNL     1      -5.940  -0.071  -6.840  0.00  0.00    -0.271 N 
ATOM     10  N   UNL     1      -5.226   1.227  -8.649  0.00  0.00    -0.275 N 
ATOM     11  C   UNL     1      -5.226   1.030  -7.292  0.00  0.00    +0.331 A 
ATOM     12  C   UNL     1      -6.459  -0.995  -7.730  0.00  0.00    +0.098 A 
ATOM     13  C   UNL     1      -6.457  -0.789  -9.050  0.00  0.00    +0.088 A 
ATOM     14  C   UNL     1      -5.914   0.479  -9.560  0.00  0.00    +0.254 A 
ATOM     15  H   UNL     1      -4.846   2.099  -8.985  0.00  0.00    +0.173 HD
ENDBRANCH   6   9
BRANCH   4  16
ATOM     16  O   UNL     1      -6.539  -1.202  -2.732  0.00  0.00    -0.386 OA
ATOM     17  H   UNL     1      -6.864  -1.718  -3.495  0.00  0.00    +0.210 HD
ENDBRANCH   4  16
BRANCH   5  18
ATOM     18  O   UNL     1      -5.053  -2.259  -4.569  0.00  0.00    -0.385 OA
ATOM     19  H   UNL     1      -5.146  -2.536  -3.629  0.00  0.00    +0.210 HD
ENDBRANCH   5  18
ENDBRANCH   1   3
BRANCH   1  21
ATOM     20  O   UNL     1      -2.187   3.076  -3.132  0.00  0.00    -0.274 OA
ATOM     21  N   UNL     1      -4.074   2.208  -2.176  0.00  0.00    -0.299 N 
ATOM     22  C   UNL     1      -2.726   2.518  -2.186  0.00  0.00    +0.231 C 
ATOM     23  H   UNL     1      -4.354   1.651  -1.372  0.00  0.00    +0.150 HD
BRANCH  22  24
ATOM     24  CA  UNL     1      -1.937   2.057  -0.919  0.00  0.00    +0.143 C 
BRANCH  24  25
ATOM     25  N   UNL     1      -2.936   1.621   0.102  0.00  0.00    -0.320 NA
ATOM     26  H1  UNL     1      -2.767   2.146   0.962  0.00  0.00    +0.119 HD
ATOM     27  H2  UNL     1      -3.855   1.940  -0.212  0.00  0.00    +0.119 HD
ENDBRANCH  24  25
BRANCH  24  28
ATOM     28  C   UNL     1      -0.921   0.919  -1.228  0.00  0.00    +0.046 C 
ATOM     29  C   UNL     1      -1.597  -0.449  -1.486  0.00  0.00    +0.012 C 
BRANCH  28  30
ATOM     30  C   UNL     1       0.207   0.817  -0.158  0.00  0.00    +0.168 C 
BRANCH  30  32
ATOM     31  N   UNL     1       1.881   2.565  -0.711  0.00  0.00    -0.254 NA
ATOM     32  C   UNL     1       1.603   1.241  -0.592  0.00  0.00    +0.070 A 
ATOM     33  C   UNL     1       2.581   0.265  -0.798  0.00  0.00    +0.029 A 
ATOM     34  C   UNL     1       3.879   0.657  -1.122  0.00  0.00    +0.049 A 
ATOM     35  C   UNL     1       3.149   2.918  -1.011  0.00  0.00    +0.156 A 
ATOM     36  C   UNL     1       4.170   2.007  -1.215  0.00  0.00    +0.135 A 
BRANCH  36  37
ATOM     37  O   UNL     1       5.449   2.382  -1.494  0.00  0.00    -0.505 OA
ATOM     38  H   UNL     1       5.753   2.984  -0.795  0.00  0.00    +0.292 HD
ENDBRANCH  36  37
ENDBRANCH  30  32
BRANCH  30  39
ATOM     39  O   UNL     1      -0.161   1.587   0.996  0.00  0.00    -0.385 OA
ATOM     40  H   UNL     1       0.393   1.272   1.730  0.00  0.00    +0.210 HD
ENDBRANCH  30  39
ENDBRANCH  28  30
ENDBRANCH  24  28
ENDBRANCH  22  24
ENDBRANCH   1  21
BRANCH   1  42
ATOM     41  OXT UNL     1      -5.983   4.266  -2.615  0.00  0.00    -0.249 OA
ATOM     42  C   UNL     1      -5.578   3.577  -3.544  0.00  0.00    +0.328 C 
BRANCH  42  43
ATOM     43  O   UNL     1      -5.668   4.014  -4.820  0.00  0.00    -0.479 OA
ATOM     44  H   UNL     1      -4.954   4.649  -5.077  0.00  0.00    +0.295 HD
ENDBRANCH  42  43
ENDBRANCH   1  42
TORSDOF 14
ENDMDL
MODEL 9
REMARK VINA RESULT:    -8.472      3.898      9.712
REMARK INTER + INTRA:         -15.772
REMARK INTER:                 -13.905
REMARK INTRA:                  -1.868
REMARK UNBOUND:                -1.853
REMARK  Name = 456557
REMARK  15 active torsions:
REMARK  status: ('A' for Active; 'I' for Inactive)
REMARK    1  A    between atoms: O_2  and  C_17
REMARK    2  A    between atoms: O_3  and  C_18
REMARK    3  A    between atoms: O_4  and  C_22
REMARK    4  A    between atoms: O_7  and  C_27
REMARK    5  A    between atoms: O_10  and  C_35
REMARK    6  A    between atoms: N_11  and  C_19
REMARK    7  A    between atoms: N_12  and  CA_20
REMARK    8  A    between atoms: N_13  and  CA_21
REMARK    9  A    between atoms: C_16  and  CA_20
REMARK   10  A    between atoms: CA_20  and  C_22
REMARK   11  A    between atoms: CA_21  and  C_23
REMARK   12  A    between atoms: CA_21  and  C_24
REMARK   13  A    between atoms: C_23  and  C_27
REMARK   14  A    between atoms: C_23  and  C_28
REMARK   15  A    between atoms: C_27  and  C_30
REMARK                            x       y       z     vdW  Elec       q    Type
REMARK                         _______ _______ _______ _____ _____    ______ ____
ROOT
ATOM      1  CA  UNL     1      -2.458   2.297  -4.435  0.00  0.00    +0.213 C 
ENDROOT
BRANCH   1   3
ATOM      2  O   UNL     1      -4.641   3.019  -5.347  0.00  0.00    -0.345 OA
ATOM      3  C   UNL     1      -3.777   3.064  -4.172  0.00  0.00    +0.183 C 
ATOM      4  C   UNL     1      -4.625   2.475  -3.043  0.00  0.00    +0.178 C 
ATOM      5  C   UNL     1      -5.524   1.474  -3.759  0.00  0.00    +0.195 C 
ATOM      6  C   UNL     1      -5.825   2.250  -5.043  0.00  0.00    +0.255 C 
BRANCH   6   9
ATOM      7  O   UNL     1      -8.326   0.948  -5.386  0.00  0.00    -0.246 OA
ATOM      8  O   UNL     1      -6.831  -1.318  -8.998  0.00  0.00    -0.268 OA
ATOM      9  N   UNL     1      -6.230   1.475  -6.220  0.00  0.00    -0.271 N 
ATOM     10  N   UNL     1      -7.644  -0.050  -7.288  0.00  0.00    -0.275 N 
ATOM     11  C   UNL     1      -7.454   0.823  -6.248  0.00  0.00    +0.331 A 
ATOM     12  C   UNL     1      -5.345   1.372  -7.281  0.00  0.00    +0.098 A 
ATOM     13  C   UNL     1      -5.540   0.515  -8.286  0.00  0.00    +0.088 A 
ATOM     14  C   UNL     1      -6.716  -0.367  -8.238  0.00  0.00    +0.254 A 
ATOM     15  H   UNL     1      -8.457  -0.644  -7.244  0.00  0.00    +0.173 HD
ENDBRANCH   6   9
BRANCH   4  16
ATOM     16  O   UNL     1      -5.519   3.460  -2.469  0.00  0.00    -0.386 OA
ATOM     17  H   UNL     1      -6.440   3.199  -2.660  0.00  0.00    +0.210 HD
ENDBRANCH   4  16
BRANCH   5  18
ATOM     18  O   UNL     1      -6.697   1.213  -2.988  0.00  0.00    -0.385 OA
ATOM     19  H   UNL     1      -7.183   2.069  -2.945  0.00  0.00    +0.210 HD
ENDBRANCH   5  18
ENDBRANCH   1   3
BRANCH   1  21
ATOM     20  O   UNL     1      -2.406  -0.098  -2.836  0.00  0.00    -0.274 OA
ATOM     21  N   UNL     1      -1.614   2.004  -3.260  0.00  0.00    -0.299 N 
ATOM     22  C   UNL     1      -1.765   0.878  -2.471  0.00  0.00    +0.231 C 
ATOM     23  H   UNL     1      -1.149   2.773  -2.781  0.00  0.00    +0.150 HD
BRANCH  22  24
ATOM     24  CA  UNL     1      -1.098   0.969  -1.061  0.00  0.00    +0.143 C 
BRANCH  24  25
ATOM     25  N   UNL     1      -2.042   0.364  -0.075  0.00  0.00    -0.320 NA
ATOM     26  H1  UNL     1      -1.818   0.734   0.851  0.00  0.00    +0.119 HD
ATOM     27  H2  UNL     1      -2.973   0.733  -0.275  0.00  0.00    +0.119 HD
ENDBRANCH  24  25
BRANCH  24  28
ATOM     28  C   UNL     1       0.290   0.267  -1.010  0.00  0.00    +0.046 C 
ATOM     29  C   UNL     1       0.195  -1.253  -0.738  0.00  0.00    +0.012 C 
BRANCH  28  30
ATOM     30  C   UNL     1       1.281   0.971  -0.036  0.00  0.00    +0.168 C 
BRANCH  30  32
ATOM     31  N   UNL     1       1.601   3.266  -0.927  0.00  0.00    -0.254 NA
ATOM     32  C   UNL     1       2.160   2.066  -0.624  0.00  0.00    +0.070 A 
ATOM     33  C   UNL     1       3.528   1.834  -0.783  0.00  0.00    +0.029 A 
ATOM     34  C   UNL     1       4.345   2.861  -1.251  0.00  0.00    +0.049 A 
ATOM     35  C   UNL     1       2.417   4.249  -1.364  0.00  0.00    +0.156 A 
ATOM     36  C   UNL     1       3.781   4.093  -1.532  0.00  0.00    +0.135 A 
BRANCH  36  37
ATOM     37  O   UNL     1       4.592   5.102  -1.952  0.00  0.00    -0.505 OA
ATOM     38  H   UNL     1       4.696   5.738  -1.225  0.00  0.00    +0.292 HD
ENDBRANCH  36  37
ENDBRANCH  30  32
BRANCH  30  39
ATOM     39  O   UNL     1       0.550   1.523   1.070  0.00  0.00    -0.385 OA
ATOM     40  H   UNL     1       0.853   2.441   1.174  0.00  0.00    +0.210 HD
ENDBRANCH  30  39
ENDBRANCH  28  30
ENDBRANCH  24  28
ENDBRANCH  22  24
ENDBRANCH   1  21
BRANCH   1  42
ATOM     41  OXT UNL     1      -0.503   3.542  -5.247  0.00  0.00    -0.249 OA
ATOM     42  C   UNL     1      -1.612   3.071  -5.466  0.00  0.00    +0.328 C 
BRANCH  42  43
ATOM     43  O   UNL     1      -2.185   3.185  -6.686  0.00  0.00    -0.479 OA
ATOM     44  H   UNL     1      -1.571   2.987  -7.436  0.00  0.00    +0.295 HD
ENDBRANCH  42  43
ENDBRANCH   1  42
TORSDOF 14
ENDMDL
