MODEL 1
REMARK VINA RESULT:     0.000      0.000      0.000
REMARK INTER + INTRA:          -3.094
REMARK INTER:                   0.000
REMARK INTRA:                  -3.094
REMARK UNBOUND:                -3.094
REMARK  Name = 
REMARK  18 active torsions:
REMARK  status: ('A' for Active; 'I' for Inactive)
REMARK    1  A    between atoms: C_2  and  C_33
REMARK    2  A    between atoms: C_3  and  O_21
REMARK    3  A    between atoms: C_4  and  O_20
REMARK    4  A    between atoms: C_5  and  O_19
REMARK    5  A    between atoms: C_6  and  N_7
REMARK    6  A    between atoms: N_7  and  C_8
REMARK    7  A    between atoms: C_10  and  C_17
REMARK    8  A    between atoms: C_11  and  O_16
REMARK    9  A    between atoms: C_12  and  O_15
REMARK   10  A    between atoms: C_13  and  O_14
REMARK   11  A    between atoms: C_17  and  O_18
REMARK   12  A    between atoms: O_21  and  C_22
REMARK   13  A    between atoms: C_23  and  O_32
REMARK   14  A    between atoms: C_24  and  O_31
REMARK   15  A    between atoms: C_25  and  O_30
REMARK   16  A    between atoms: C_26  and  C_28
REMARK   17  A    between atoms: C_28  and  O_29
REMARK   18  A    between atoms: C_33  and  O_34
REMARK                            x       y       z     vdW  Elec       q    Type
REMARK                         _______ _______ _______ _____ _____    ______ ____
ROOT
ATOM      1  C   UNL     1       3.323   2.568   2.004  0.00  0.00    +0.029 C 
ATOM      2  C   UNL     1       1.795   2.754   2.116  0.00  0.00    +0.047 C 
ATOM      3  C   UNL     1       0.980   2.188   0.901  0.00  0.00    +0.158 C 
ATOM      4  C   UNL     1       1.731   2.322  -0.453  0.00  0.00    +0.174 C 
ATOM      5  C   UNL     1       3.269   2.256  -0.402  0.00  0.00    +0.162 C 
ATOM      6  C   UNL     1       3.883   3.126   0.707  0.00  0.00    +0.086 C 
ENDROOT
BRANCH   4   7
ATOM      7  O   UNL     1       1.258   1.267  -1.321  0.00  0.00    -0.387 OA
ATOM      8  H   UNL     1       0.982   1.647  -2.172  0.00  0.00    +0.210 HD
ENDBRANCH   4   7
BRANCH   5   9
ATOM      9  O   UNL     1       3.833   2.603  -1.675  0.00  0.00    -0.388 OA
ATOM     10  H   UNL     1       4.723   2.958  -1.513  0.00  0.00    +0.210 HD
ENDBRANCH   5   9
BRANCH   6  11
ATOM     11  N   UNL     1       3.611   4.572   0.511  0.00  0.00    -0.302 NA
ATOM     12  H   UNL     1       3.635   4.760  -0.490  0.00  0.00    +0.123 HD
BRANCH  11  13
ATOM     13  C   UNL     1       4.554   5.491   1.193  0.00  0.00    +0.109 C 
ATOM     14  C   UNL     1       5.559   6.119   0.267  0.00  0.00    -0.002 C 
ATOM     15  C   UNL     1       5.445   7.375  -0.212  0.00  0.00    -0.016 C 
ATOM     16  C   UNL     1       4.234   8.229   0.033  0.00  0.00    +0.173 C 
ATOM     17  C   UNL     1       3.145   7.607   0.949  0.00  0.00    +0.177 C 
ATOM     18  C   UNL     1       3.760   6.602   1.942  0.00  0.00    +0.166 C 
BRANCH  16  19
ATOM     19  O   UNL     1       3.675   8.549  -1.245  0.00  0.00    -0.385 OA
ATOM     20  H   UNL     1       2.784   8.164  -1.284  0.00  0.00    +0.210 HD
ENDBRANCH  16  19
BRANCH  17  21
ATOM     21  O   UNL     1       2.446   8.657   1.641  0.00  0.00    -0.386 OA
ATOM     22  H   UNL     1       1.636   8.864   1.143  0.00  0.00    +0.210 HD
ENDBRANCH  17  21
BRANCH  18  23
ATOM     23  O   UNL     1       2.745   6.007   2.761  0.00  0.00    -0.387 OA
ATOM     24  H   UNL     1       3.089   6.033   3.676  0.00  0.00    +0.210 HD
ENDBRANCH  18  23
BRANCH  15  25
ATOM     25  C   UNL     1       6.561   8.046  -0.979  0.00  0.00    +0.189 C 
BRANCH  25  26
ATOM     26  O   UNL     1       6.315   7.945  -2.370  0.00  0.00    -0.391 OA
ATOM     27  H   UNL     1       6.380   8.856  -2.725  0.00  0.00    +0.210 HD
ENDBRANCH  25  26
ENDBRANCH  15  25
ENDBRANCH  11  13
ENDBRANCH   6  11
BRANCH   3  28
ATOM     28  O   UNL     1      -0.280   2.929   0.848  0.00  0.00    -0.342 OA
BRANCH  28  29
ATOM     29  C   UNL     1      -0.247   4.387   0.799  0.00  0.00    +0.282 C 
ATOM     30  C   UNL     1      -1.226   4.823  -0.344  0.00  0.00    +0.201 C 
ATOM     31  C   UNL     1      -1.828   6.244  -0.209  0.00  0.00    +0.179 C 
ATOM     32  C   UNL     1      -1.967   6.781   1.216  0.00  0.00    +0.177 C 
ATOM     33  C   UNL     1      -0.693   6.416   1.968  0.00  0.00    +0.178 C 
ATOM     34  O   UNL     1      -0.678   4.984   2.024  0.00  0.00    -0.341 OA
BRANCH  30  35
ATOM     35  O   UNL     1      -0.549   4.763  -1.619  0.00  0.00    -0.384 OA
ATOM     36  H   UNL     1       0.407   4.816  -1.429  0.00  0.00    +0.210 HD
ENDBRANCH  30  35
BRANCH  31  37
ATOM     37  O   UNL     1      -3.116   6.299  -0.854  0.00  0.00    -0.386 OA
ATOM     38  H   UNL     1      -3.072   6.949  -1.581  0.00  0.00    +0.210 HD
ENDBRANCH  31  37
BRANCH  32  39
ATOM     39  O   UNL     1      -2.185   8.200   1.199  0.00  0.00    -0.386 OA
ATOM     40  H   UNL     1      -2.683   8.437   2.005  0.00  0.00    +0.210 HD
ENDBRANCH  32  39
BRANCH  33  41
ATOM     41  C   UNL     1      -0.649   7.034   3.365  0.00  0.00    +0.190 C 
BRANCH  41  42
ATOM     42  O   UNL     1       0.554   7.761   3.603  0.00  0.00    -0.392 OA
ATOM     43  H   UNL     1       0.846   7.525   4.507  0.00  0.00    +0.210 HD
ENDBRANCH  41  42
ENDBRANCH  33  41
ENDBRANCH  28  29
ENDBRANCH   3  28
BRANCH   2  44
ATOM     44  C   UNL     1       1.384   2.186   3.489  0.00  0.00    +0.162 C 
BRANCH  44  45
ATOM     45  O   UNL     1       0.080   2.612   3.873  0.00  0.00    -0.395 OA
ATOM     46  H   UNL     1      -0.311   3.102   3.134  0.00  0.00    +0.209 HD
ENDBRANCH  44  45
ENDBRANCH   2  44
TORSDOF 18
ENDMDL
MODEL 2
REMARK VINA RESULT:     0.000      6.486      9.548
REMARK INTER + INTRA:          -3.094
REMARK INTER:                   0.000
REMARK INTRA:                  -3.094
REMARK UNBOUND:                -3.094
REMARK  Name = 
REMARK  18 active torsions:
REMARK  status: ('A' for Active; 'I' for Inactive)
REMARK    1  A    between atoms: C_2  and  C_33
REMARK    2  A    between atoms: C_3  and  O_21
REMARK    3  A    between atoms: C_4  and  O_20
REMARK    4  A    between atoms: C_5  and  O_19
REMARK    5  A    between atoms: C_6  and  N_7
REMARK    6  A    between atoms: N_7  and  C_8
REMARK    7  A    between atoms: C_10  and  C_17
REMARK    8  A    between atoms: C_11  and  O_16
REMARK    9  A    between atoms: C_12  and  O_15
REMARK   10  A    between atoms: C_13  and  O_14
REMARK   11  A    between atoms: C_17  and  O_18
REMARK   12  A    between atoms: O_21  and  C_22
REMARK   13  A    between atoms: C_23  and  O_32
REMARK   14  A    between atoms: C_24  and  O_31
REMARK   15  A    between atoms: C_25  and  O_30
REMARK   16  A    between atoms: C_26  and  C_28
REMARK   17  A    between atoms: C_28  and  O_29
REMARK   18  A    between atoms: C_33  and  O_34
REMARK                            x       y       z     vdW  Elec       q    Type
REMARK                         _______ _______ _______ _____ _____    ______ ____
ROOT
ATOM      1  C   UNL     1      -5.107  -1.555   2.248  0.00  0.00    +0.029 C 
ATOM      2  C   UNL     1      -5.141  -2.617   1.129  0.00  0.00    +0.047 C 
ATOM      3  C   UNL     1      -4.008  -3.698   1.223  0.00  0.00    +0.158 C 
ATOM      4  C   UNL     1      -2.673  -3.135   1.788  0.00  0.00    +0.174 C 
ATOM      5  C   UNL     1      -2.782  -1.978   2.798  0.00  0.00    +0.162 C 
ATOM      6  C   UNL     1      -3.756  -0.871   2.360  0.00  0.00    +0.086 C 
ENDROOT
BRANCH   4   7
ATOM      7  O   UNL     1      -1.972  -4.230   2.421  0.00  0.00    -0.387 OA
ATOM      8  H   UNL     1      -1.019  -4.035   2.441  0.00  0.00    +0.210 HD
ENDBRANCH   4   7
BRANCH   5   9
ATOM      9  O   UNL     1      -1.488  -1.421   3.070  0.00  0.00    -0.388 OA
ATOM     10  H   UNL     1      -1.553  -0.458   2.949  0.00  0.00    +0.210 HD
ENDBRANCH   5   9
BRANCH   6  11
ATOM     11  N   UNL     1      -3.322  -0.194   1.112  0.00  0.00    -0.302 NA
ATOM     12  H   UNL     1      -2.306  -0.135   1.128  0.00  0.00    +0.123 HD
BRANCH  11  13
ATOM     13  C   UNL     1      -3.877   1.166   0.905  0.00  0.00    +0.109 C 
ATOM     14  C   UNL     1      -2.894   2.267   1.191  0.00  0.00    -0.002 C 
ATOM     15  C   UNL     1      -2.218   2.927   0.229  0.00  0.00    -0.016 C 
ATOM     16  C   UNL     1      -2.284   2.539  -1.220  0.00  0.00    +0.173 C 
ATOM     17  C   UNL     1      -3.254   1.374  -1.562  0.00  0.00    +0.177 C 
ATOM     18  C   UNL     1      -4.414   1.300  -0.551  0.00  0.00    +0.166 C 
BRANCH  16  19
ATOM     19  O   UNL     1      -0.956   2.205  -1.633  0.00  0.00    -0.385 OA
ATOM     20  H   UNL     1      -0.850   1.244  -1.547  0.00  0.00    +0.210 HD
ENDBRANCH  16  19
BRANCH  17  21
ATOM     21  O   UNL     1      -3.747   1.541  -2.903  0.00  0.00    -0.386 OA
ATOM     22  H   UNL     1      -4.670   1.843  -2.854  0.00  0.00    +0.210 HD
ENDBRANCH  17  21
BRANCH  18  23
ATOM     23  O   UNL     1      -5.286   0.203  -0.852  0.00  0.00    -0.387 OA
ATOM     24  H   UNL     1      -5.110  -0.474  -0.169  0.00  0.00    +0.210 HD
ENDBRANCH  18  23
BRANCH  15  25
ATOM     25  C   UNL     1      -1.387   4.154   0.528  0.00  0.00    +0.189 C 
BRANCH  25  26
ATOM     26  O   UNL     1      -0.023   3.793   0.651  0.00  0.00    -0.391 OA
ATOM     27  H   UNL     1       0.385   4.465   1.234  0.00  0.00    +0.210 HD
ENDBRANCH  25  26
ENDBRANCH  15  25
ENDBRANCH  11  13
ENDBRANCH   6  11
BRANCH   3  28
ATOM     28  O   UNL     1      -3.799  -4.217  -0.128  0.00  0.00    -0.342 OA
BRANCH  28  29
ATOM     29  C   UNL     1      -3.517  -3.285  -1.214  0.00  0.00    +0.282 C 
ATOM     30  C   UNL     1      -2.290  -3.860  -1.999  0.00  0.00    +0.201 C 
ATOM     31  C   UNL     1      -2.177  -3.429  -3.482  0.00  0.00    +0.179 C 
ATOM     32  C   UNL     1      -3.492  -3.092  -4.185  0.00  0.00    +0.177 C 
ATOM     33  C   UNL     1      -4.332  -2.273  -3.212  0.00  0.00    +0.178 C 
ATOM     34  O   UNL     1      -4.617  -3.151  -2.117  0.00  0.00    -0.341 OA
BRANCH  30  35
ATOM     35  O   UNL     1      -1.062  -3.471  -1.344  0.00  0.00    -0.384 OA
ATOM     36  H   UNL     1      -0.601  -4.297  -1.104  0.00  0.00    +0.210 HD
ENDBRANCH  30  35
BRANCH  31  37
ATOM     37  O   UNL     1      -1.491  -4.445  -4.241  0.00  0.00    -0.386 OA
ATOM     38  H   UNL     1      -2.124  -4.844  -4.869  0.00  0.00    +0.210 HD
ENDBRANCH  31  37
BRANCH  32  39
ATOM     39  O   UNL     1      -3.242  -2.376  -5.403  0.00  0.00    -0.386 OA
ATOM     40  H   UNL     1      -4.104  -2.169  -5.814  0.00  0.00    +0.210 HD
ENDBRANCH  32  39
BRANCH  33  41
ATOM     41  C   UNL     1      -5.613  -1.744  -3.859  0.00  0.00    +0.190 C 
BRANCH  41  42
ATOM     42  O   UNL     1      -5.768  -0.337  -3.691  0.00  0.00    -0.392 OA
ATOM     43  H   UNL     1      -4.867   0.031  -3.592  0.00  0.00    +0.210 HD
ENDBRANCH  41  42
ENDBRANCH  33  41
ENDBRANCH  28  29
ENDBRANCH   3  28
BRANCH   2  44
ATOM     44  C   UNL     1      -6.574  -3.185   1.107  0.00  0.00    +0.162 C 
BRANCH  44  45
ATOM     45  O   UNL     1      -6.845  -3.902  -0.094  0.00  0.00    -0.395 OA
ATOM     46  H   UNL     1      -7.558  -4.534   0.082  0.00  0.00    +0.209 HD
ENDBRANCH  44  45
ENDBRANCH   2  44
TORSDOF 18
ENDMDL
MODEL 3
REMARK VINA RESULT:     0.001      8.189     12.487
REMARK INTER + INTRA:          -3.093
REMARK INTER:                   0.000
REMARK INTRA:                  -3.093
REMARK UNBOUND:                -3.094
REMARK  Name = 
REMARK  18 active torsions:
REMARK  status: ('A' for Active; 'I' for Inactive)
REMARK    1  A    between atoms: C_2  and  C_33
REMARK    2  A    between atoms: C_3  and  O_21
REMARK    3  A    between atoms: C_4  and  O_20
REMARK    4  A    between atoms: C_5  and  O_19
REMARK    5  A    between atoms: C_6  and  N_7
REMARK    6  A    between atoms: N_7  and  C_8
REMARK    7  A    between atoms: C_10  and  C_17
REMARK    8  A    between atoms: C_11  and  O_16
REMARK    9  A    between atoms: C_12  and  O_15
REMARK   10  A    between atoms: C_13  and  O_14
REMARK   11  A    between atoms: C_17  and  O_18
REMARK   12  A    between atoms: O_21  and  C_22
REMARK   13  A    between atoms: C_23  and  O_32
REMARK   14  A    between atoms: C_24  and  O_31
REMARK   15  A    between atoms: C_25  and  O_30
REMARK   16  A    between atoms: C_26  and  C_28
REMARK   17  A    between atoms: C_28  and  O_29
REMARK   18  A    between atoms: C_33  and  O_34
REMARK                            x       y       z     vdW  Elec       q    Type
REMARK                         _______ _______ _______ _____ _____    ______ ____
ROOT
ATOM      1  C   UNL     1       2.835  -4.380  -1.444  0.00  0.00    +0.029 C 
ATOM      2  C   UNL     1       3.216  -4.127  -2.919  0.00  0.00    +0.047 C 
ATOM      3  C   UNL     1       3.219  -2.615  -3.340  0.00  0.00    +0.158 C 
ATOM      4  C   UNL     1       2.130  -1.777  -2.612  0.00  0.00    +0.174 C 
ATOM      5  C   UNL     1       1.745  -2.226  -1.190  0.00  0.00    +0.162 C 
ATOM      6  C   UNL     1       1.510  -3.742  -1.069  0.00  0.00    +0.086 C 
ENDROOT
BRANCH   4   7
ATOM      7  O   UNL     1       2.601  -0.412  -2.547  0.00  0.00    -0.387 OA
ATOM      8  H   UNL     1       1.982   0.167  -3.023  0.00  0.00    +0.210 HD
ENDBRANCH   4   7
BRANCH   5   9
ATOM      9  O   UNL     1       0.594  -1.507  -0.726  0.00  0.00    -0.388 OA
ATOM     10  H   UNL     1      -0.001  -2.149  -0.302  0.00  0.00    +0.210 HD
ENDBRANCH   5   9
BRANCH   6  11
ATOM     11  N   UNL     1       0.366  -4.207  -1.894  0.00  0.00    -0.302 NA
ATOM     12  H   UNL     1      -0.347  -3.480  -1.875  0.00  0.00    +0.123 HD
BRANCH  11  13
ATOM     13  C   UNL     1      -0.245  -5.487  -1.462  0.00  0.00    +0.109 C 
ATOM     14  C   UNL     1      -1.552  -5.316  -0.737  0.00  0.00    -0.002 C 
ATOM     15  C   UNL     1      -2.754  -5.500  -1.319  0.00  0.00    -0.016 C 
ATOM     16  C   UNL     1      -2.911  -5.771  -2.787  0.00  0.00    +0.173 C 
ATOM     17  C   UNL     1      -1.590  -5.913  -3.591  0.00  0.00    +0.177 C 
ATOM     18  C   UNL     1      -0.444  -6.419  -2.694  0.00  0.00    +0.166 C 
BRANCH  16  19
ATOM     19  O   UNL     1      -3.704  -4.713  -3.333  0.00  0.00    -0.385 OA
ATOM     20  H   UNL     1      -4.097  -4.224  -2.592  0.00  0.00    +0.210 HD
ENDBRANCH  16  19
BRANCH  17  21
ATOM     21  O   UNL     1      -1.801  -6.795  -4.707  0.00  0.00    -0.386 OA
ATOM     22  H   UNL     1      -1.188  -6.542  -5.418  0.00  0.00    +0.210 HD
ENDBRANCH  17  21
BRANCH  18  23
ATOM     23  O   UNL     1       0.780  -6.514  -3.434  0.00  0.00    -0.387 OA
ATOM     24  H   UNL     1       0.804  -7.422  -3.797  0.00  0.00    +0.210 HD
ENDBRANCH  18  23
BRANCH  15  25
ATOM     25  C   UNL     1      -4.039  -5.513  -0.521  0.00  0.00    +0.189 C 
BRANCH  25  26
ATOM     26  O   UNL     1      -4.666  -4.246  -0.602  0.00  0.00    -0.391 OA
ATOM     27  H   UNL     1      -4.623  -3.980  -1.544  0.00  0.00    +0.210 HD
ENDBRANCH  25  26
ENDBRANCH  15  25
ENDBRANCH  11  13
ENDBRANCH   6  11
BRANCH   3  28
ATOM     28  O   UNL     1       2.998  -2.573  -4.784  0.00  0.00    -0.342 OA
BRANCH  28  29
ATOM     29  C   UNL     1       1.835  -3.251  -5.348  0.00  0.00    +0.282 C 
ATOM     30  C   UNL     1       1.155  -2.241  -6.333  0.00  0.00    +0.201 C 
ATOM     31  C   UNL     1       0.316  -2.872  -7.472  0.00  0.00    +0.179 C 
ATOM     32  C   UNL     1       0.741  -4.270  -7.922  0.00  0.00    +0.177 C 
ATOM     33  C   UNL     1       1.059  -5.077  -6.669  0.00  0.00    +0.178 C 
ATOM     34  O   UNL     1       2.190  -4.430  -6.073  0.00  0.00    -0.341 OA
BRANCH  30  35
ATOM     35  O   UNL     1       0.284  -1.352  -5.599  0.00  0.00    -0.384 OA
ATOM     36  H   UNL     1      -0.628  -1.565  -5.876  0.00  0.00    +0.210 HD
ENDBRANCH  30  35
BRANCH  31  37
ATOM     37  O   UNL     1       0.302  -1.998  -8.618  0.00  0.00    -0.386 OA
ATOM     38  H   UNL     1      -0.148  -1.168  -8.370  0.00  0.00    +0.210 HD
ENDBRANCH  31  37
BRANCH  32  39
ATOM     39  O   UNL     1      -0.298  -4.885  -8.699  0.00  0.00    -0.386 OA
ATOM     40  H   UNL     1      -0.929  -4.187  -8.964  0.00  0.00    +0.210 HD
ENDBRANCH  32  39
BRANCH  33  41
ATOM     41  C   UNL     1       1.350  -6.544  -6.985  0.00  0.00    +0.190 C 
BRANCH  41  42
ATOM     42  O   UNL     1       0.559  -7.438  -6.205  0.00  0.00    -0.392 OA
ATOM     43  H   UNL     1      -0.014  -6.880  -5.640  0.00  0.00    +0.210 HD
ENDBRANCH  41  42
ENDBRANCH  33  41
ENDBRANCH  28  29
ENDBRANCH   3  28
BRANCH   2  44
ATOM     44  C   UNL     1       4.547  -4.865  -3.160  0.00  0.00    +0.162 C 
BRANCH  44  45
ATOM     45  O   UNL     1       4.828  -5.018  -4.549  0.00  0.00    -0.395 OA
ATOM     46  H   UNL     1       5.759  -4.797  -4.699  0.00  0.00    +0.209 HD
ENDBRANCH  44  45
ENDBRANCH   2  44
TORSDOF 18
ENDMDL
MODEL 4
REMARK VINA RESULT:     0.001      8.460     12.273
REMARK INTER + INTRA:          -3.092
REMARK INTER:                   0.000
REMARK INTRA:                  -3.092
REMARK UNBOUND:                -3.094
REMARK  Name = 
REMARK  18 active torsions:
REMARK  status: ('A' for Active; 'I' for Inactive)
REMARK    1  A    between atoms: C_2  and  C_33
REMARK    2  A    between atoms: C_3  and  O_21
REMARK    3  A    between atoms: C_4  and  O_20
REMARK    4  A    between atoms: C_5  and  O_19
REMARK    5  A    between atoms: C_6  and  N_7
REMARK    6  A    between atoms: N_7  and  C_8
REMARK    7  A    between atoms: C_10  and  C_17
REMARK    8  A    between atoms: C_11  and  O_16
REMARK    9  A    between atoms: C_12  and  O_15
REMARK   10  A    between atoms: C_13  and  O_14
REMARK   11  A    between atoms: C_17  and  O_18
REMARK   12  A    between atoms: O_21  and  C_22
REMARK   13  A    between atoms: C_23  and  O_32
REMARK   14  A    between atoms: C_24  and  O_31
REMARK   15  A    between atoms: C_25  and  O_30
REMARK   16  A    between atoms: C_26  and  C_28
REMARK   17  A    between atoms: C_28  and  O_29
REMARK   18  A    between atoms: C_33  and  O_34
REMARK                            x       y       z     vdW  Elec       q    Type
REMARK                         _______ _______ _______ _____ _____    ______ ____
ROOT
ATOM      1  C   UNL     1       3.736  -4.667   1.808  0.00  0.00    +0.029 C 
ATOM      2  C   UNL     1       3.578  -3.300   2.507  0.00  0.00    +0.047 C 
ATOM      3  C   UNL     1       4.932  -2.576   2.835  0.00  0.00    +0.158 C 
ATOM      4  C   UNL     1       6.077  -3.562   3.199  0.00  0.00    +0.174 C 
ATOM      5  C   UNL     1       6.036  -4.950   2.531  0.00  0.00    +0.162 C 
ATOM      6  C   UNL     1       4.647  -5.610   2.575  0.00  0.00    +0.086 C 
ENDROOT
BRANCH   4   7
ATOM      7  O   UNL     1       7.328  -2.926   2.850  0.00  0.00    -0.387 OA
ATOM      8  H   UNL     1       7.240  -1.963   2.955  0.00  0.00    +0.210 HD
ENDBRANCH   4   7
BRANCH   5   9
ATOM      9  O   UNL     1       7.017  -5.820   3.112  0.00  0.00    -0.388 OA
ATOM     10  H   UNL     1       7.859  -5.334   3.139  0.00  0.00    +0.210 HD
ENDBRANCH   5   9
BRANCH   6  11
ATOM     11  N   UNL     1       4.193  -5.885   3.961  0.00  0.00    -0.302 NA
ATOM     12  H   UNL     1       5.009  -6.153   4.509  0.00  0.00    +0.123 HD
BRANCH  11  13
ATOM     13  C   UNL     1       3.162  -6.944   4.090  0.00  0.00    +0.109 C 
ATOM     14  C   UNL     1       3.704  -8.252   4.597  0.00  0.00    -0.002 C 
ATOM     15  C   UNL     1       3.584  -8.660   5.876  0.00  0.00    -0.016 C 
ATOM     16  C   UNL     1       3.008  -7.789   6.955  0.00  0.00    +0.173 C 
ATOM     17  C   UNL     1       2.474  -6.406   6.490  0.00  0.00    +0.177 C 
ATOM     18  C   UNL     1       2.014  -6.452   5.020  0.00  0.00    +0.166 C 
BRANCH  16  19
ATOM     19  O   UNL     1       4.023  -7.613   7.947  0.00  0.00    -0.385 OA
ATOM     20  H   UNL     1       4.880  -7.806   7.533  0.00  0.00    +0.210 HD
ENDBRANCH  16  19
BRANCH  17  21
ATOM     21  O   UNL     1       1.403  -5.992   7.355  0.00  0.00    -0.386 OA
ATOM     22  H   UNL     1       1.728  -6.004   8.272  0.00  0.00    +0.210 HD
ENDBRANCH  17  21
BRANCH  18  23
ATOM     23  O   UNL     1       1.555  -5.165   4.588  0.00  0.00    -0.387 OA
ATOM     24  H   UNL     1       0.783  -4.952   5.150  0.00  0.00    +0.210 HD
ENDBRANCH  18  23
BRANCH  15  25
ATOM     25  C   UNL     1       3.962 -10.058   6.312  0.00  0.00    +0.189 C 
BRANCH  25  26
ATOM     26  O   UNL     1       5.260 -10.049   6.878  0.00  0.00    -0.391 OA
ATOM     27  H   UNL     1       5.309  -9.245   7.436  0.00  0.00    +0.210 HD
ENDBRANCH  25  26
ENDBRANCH  15  25
ENDBRANCH  11  13
ENDBRANCH   6  11
BRANCH   3  28
ATOM     28  O   UNL     1       4.674  -1.676   3.957  0.00  0.00    -0.342 OA
BRANCH  28  29
ATOM     29  C   UNL     1       4.077  -2.209   5.177  0.00  0.00    +0.282 C 
ATOM     30  C   UNL     1       4.926  -1.662   6.375  0.00  0.00    +0.201 C 
ATOM     31  C   UNL     1       4.190  -1.564   7.733  0.00  0.00    +0.179 C 
ATOM     32  C   UNL     1       2.676  -1.359   7.663  0.00  0.00    +0.177 C 
ATOM     33  C   UNL     1       2.142  -2.274   6.568  0.00  0.00    +0.178 C 
ATOM     34  O   UNL     1       2.721  -1.792   5.349  0.00  0.00    -0.341 OA
BRANCH  30  35
ATOM     35  O   UNL     1       6.088  -2.497   6.574  0.00  0.00    -0.384 OA
ATOM     36  H   UNL     1       6.514  -2.594   5.702  0.00  0.00    +0.210 HD
ENDBRANCH  30  35
BRANCH  31  37
ATOM     37  O   UNL     1       4.765  -0.511   8.533  0.00  0.00    -0.386 OA
ATOM     38  H   UNL     1       5.715  -0.442   8.319  0.00  0.00    +0.210 HD
ENDBRANCH  31  37
BRANCH  32  39
ATOM     39  O   UNL     1       2.071  -1.642   8.933  0.00  0.00    -0.386 OA
ATOM     40  H   UNL     1       1.823  -0.791   9.345  0.00  0.00    +0.210 HD
ENDBRANCH  32  39
BRANCH  33  41
ATOM     41  C   UNL     1       0.614  -2.271   6.506  0.00  0.00    +0.190 C 
BRANCH  41  42
ATOM     42  O   UNL     1       0.063  -3.584   6.554  0.00  0.00    -0.392 OA
ATOM     43  H   UNL     1       0.566  -4.071   7.239  0.00  0.00    +0.210 HD
ENDBRANCH  41  42
ENDBRANCH  33  41
ENDBRANCH  28  29
ENDBRANCH   3  28
BRANCH   2  44
ATOM     44  C   UNL     1       2.601  -2.477   1.643  0.00  0.00    +0.162 C 
BRANCH  44  45
ATOM     45  O   UNL     1       2.091  -1.347   2.346  0.00  0.00    -0.395 OA
ATOM     46  H   UNL     1       2.705  -1.132   3.064  0.00  0.00    +0.209 HD
ENDBRANCH  44  45
ENDBRANCH   2  44
TORSDOF 18
ENDMDL
MODEL 5
REMARK VINA RESULT:     0.001      8.154     12.033
REMARK INTER + INTRA:          -3.092
REMARK INTER:                   0.000
REMARK INTRA:                  -3.092
REMARK UNBOUND:                -3.094
REMARK  Name = 
REMARK  18 active torsions:
REMARK  status: ('A' for Active; 'I' for Inactive)
REMARK    1  A    between atoms: C_2  and  C_33
REMARK    2  A    between atoms: C_3  and  O_21
REMARK    3  A    between atoms: C_4  and  O_20
REMARK    4  A    between atoms: C_5  and  O_19
REMARK    5  A    between atoms: C_6  and  N_7
REMARK    6  A    between atoms: N_7  and  C_8
REMARK    7  A    between atoms: C_10  and  C_17
REMARK    8  A    between atoms: C_11  and  O_16
REMARK    9  A    between atoms: C_12  and  O_15
REMARK   10  A    between atoms: C_13  and  O_14
REMARK   11  A    between atoms: C_17  and  O_18
REMARK   12  A    between atoms: O_21  and  C_22
REMARK   13  A    between atoms: C_23  and  O_32
REMARK   14  A    between atoms: C_24  and  O_31
REMARK   15  A    between atoms: C_25  and  O_30
REMARK   16  A    between atoms: C_26  and  C_28
REMARK   17  A    between atoms: C_28  and  O_29
REMARK   18  A    between atoms: C_33  and  O_34
REMARK                            x       y       z     vdW  Elec       q    Type
REMARK                         _______ _______ _______ _____ _____    ______ ____
ROOT
ATOM      1  C   UNL     1       3.736  -4.667   1.808  0.00  0.00    +0.029 C 
ATOM      2  C   UNL     1       3.357  -3.306   2.431  0.00  0.00    +0.047 C 
ATOM      3  C   UNL     1       4.357  -2.790   3.525  0.00  0.00    +0.158 C 
ATOM      4  C   UNL     1       4.985  -3.937   4.366  0.00  0.00    +0.174 C 
ATOM      5  C   UNL     1       5.181  -5.290   3.656  0.00  0.00    +0.162 C 
ATOM      6  C   UNL     1       3.949  -5.746   2.855  0.00  0.00    +0.086 C 
ENDROOT
BRANCH   4   7
ATOM      7  O   UNL     1       6.273  -3.478   4.836  0.00  0.00    -0.387 OA
ATOM      8  H   UNL     1       6.163  -2.635   5.309  0.00  0.00    +0.210 HD
ENDBRANCH   4   7
BRANCH   5   9
ATOM      9  O   UNL     1       5.565  -6.303   4.596  0.00  0.00    -0.388 OA
ATOM     10  H   UNL     1       6.291  -5.943   5.134  0.00  0.00    +0.210 HD
ENDBRANCH   5   9
BRANCH   6  11
ATOM     11  N   UNL     1       2.766  -5.983   3.720  0.00  0.00    -0.302 NA
ATOM     12  H   UNL     1       3.097  -6.376   4.599  0.00  0.00    +0.123 HD
BRANCH  11  13
ATOM     13  C   UNL     1       1.738  -6.887   3.150  0.00  0.00    +0.109 C 
ATOM     14  C   UNL     1       1.757  -8.270   3.741  0.00  0.00    -0.002 C 
ATOM     15  C   UNL     1       0.894  -8.684   4.690  0.00  0.00    -0.016 C 
ATOM     16  C   UNL     1      -0.094  -7.762   5.345  0.00  0.00    +0.173 C 
ATOM     17  C   UNL     1      -0.123  -6.308   4.800  0.00  0.00    +0.177 C 
ATOM     18  C   UNL     1       0.325  -6.256   3.327  0.00  0.00    +0.166 C 
BRANCH  16  19
ATOM     19  O   UNL     1       0.196  -7.754   6.746  0.00  0.00    -0.385 OA
ATOM     20  H   UNL     1       1.111  -8.058   6.862  0.00  0.00    +0.210 HD
ENDBRANCH  16  19
BRANCH  17  21
ATOM     21  O   UNL     1      -1.445  -5.764   4.959  0.00  0.00    -0.386 OA
ATOM     22  H   UNL     1      -1.697  -5.842   5.895  0.00  0.00    +0.210 HD
ENDBRANCH  17  21
BRANCH  18  23
ATOM     23  O   UNL     1       0.329  -4.908   2.841  0.00  0.00    -0.387 OA
ATOM     24  H   UNL     1      -0.598  -4.600   2.896  0.00  0.00    +0.210 HD
ENDBRANCH  18  23
BRANCH  15  25
ATOM     25  C   UNL     1       0.810 -10.130   5.123  0.00  0.00    +0.189 C 
BRANCH  25  26
ATOM     26  O   UNL     1       1.554 -10.319   6.313  0.00  0.00    -0.391 OA
ATOM     27  H   UNL     1       1.365  -9.542   6.879  0.00  0.00    +0.210 HD
ENDBRANCH  25  26
ENDBRANCH  15  25
ENDBRANCH  11  13
ENDBRANCH   6  11
BRANCH   3  28
ATOM     28  O   UNL     1       3.608  -1.886   4.396  0.00  0.00    -0.342 OA
BRANCH  28  29
ATOM     29  C   UNL     1       2.374  -2.355   5.019  0.00  0.00    +0.282 C 
ATOM     30  C   UNL     1       2.452  -1.960   6.533  0.00  0.00    +0.201 C 
ATOM     31  C   UNL     1       1.092  -1.787   7.254  0.00  0.00    +0.179 C 
ATOM     32  C   UNL     1      -0.085  -1.368   6.374  0.00  0.00    +0.177 C 
ATOM     33  C   UNL     1      -0.002  -2.174   5.084  0.00  0.00    +0.178 C 
ATOM     34  O   UNL     1       1.211  -1.753   4.447  0.00  0.00    -0.341 OA
BRANCH  30  35
ATOM     35  O   UNL     1       3.202  -2.957   7.262  0.00  0.00    -0.384 OA
ATOM     36  H   UNL     1       4.033  -3.095   6.769  0.00  0.00    +0.210 HD
ENDBRANCH  30  35
BRANCH  31  37
ATOM     37  O   UNL     1       1.224  -0.844   8.337  0.00  0.00    -0.386 OA
ATOM     38  H   UNL     1       2.130  -0.907   8.696  0.00  0.00    +0.210 HD
ENDBRANCH  31  37
BRANCH  32  39
ATOM     39  O   UNL     1      -1.328  -1.589   7.059  0.00  0.00    -0.386 OA
ATOM     40  H   UNL     1      -1.673  -0.720   7.344  0.00  0.00    +0.210 HD
ENDBRANCH  32  39
BRANCH  33  41
ATOM     41  C   UNL     1      -1.217  -1.951   4.184  0.00  0.00    +0.190 C 
BRANCH  41  42
ATOM     42  O   UNL     1      -1.835  -3.173   3.789  0.00  0.00    -0.392 OA
ATOM     43  H   UNL     1      -1.860  -3.741   4.586  0.00  0.00    +0.210 HD
ENDBRANCH  41  42
ENDBRANCH  33  41
ENDBRANCH  28  29
ENDBRANCH   3  28
BRANCH   2  44
ATOM     44  C   UNL     1       3.132  -2.335   1.255  0.00  0.00    +0.162 C 
BRANCH  44  45
ATOM     45  O   UNL     1       2.438  -1.158   1.662  0.00  0.00    -0.395 OA
ATOM     46  H   UNL     1       2.557  -1.048   2.618  0.00  0.00    +0.209 HD
ENDBRANCH  44  45
ENDBRANCH   2  44
TORSDOF 18
ENDMDL
MODEL 6
REMARK VINA RESULT:     0.001      6.538     10.068
REMARK INTER + INTRA:          -3.092
REMARK INTER:                   0.000
REMARK INTRA:                  -3.092
REMARK UNBOUND:                -3.094
REMARK  Name = 
REMARK  18 active torsions:
REMARK  status: ('A' for Active; 'I' for Inactive)
REMARK    1  A    between atoms: C_2  and  C_33
REMARK    2  A    between atoms: C_3  and  O_21
REMARK    3  A    between atoms: C_4  and  O_20
REMARK    4  A    between atoms: C_5  and  O_19
REMARK    5  A    between atoms: C_6  and  N_7
REMARK    6  A    between atoms: N_7  and  C_8
REMARK    7  A    between atoms: C_10  and  C_17
REMARK    8  A    between atoms: C_11  and  O_16
REMARK    9  A    between atoms: C_12  and  O_15
REMARK   10  A    between atoms: C_13  and  O_14
REMARK   11  A    between atoms: C_17  and  O_18
REMARK   12  A    between atoms: O_21  and  C_22
REMARK   13  A    between atoms: C_23  and  O_32
REMARK   14  A    between atoms: C_24  and  O_31
REMARK   15  A    between atoms: C_25  and  O_30
REMARK   16  A    between atoms: C_26  and  C_28
REMARK   17  A    between atoms: C_28  and  O_29
REMARK   18  A    between atoms: C_33  and  O_34
REMARK                            x       y       z     vdW  Elec       q    Type
REMARK                         _______ _______ _______ _____ _____    ______ ____
ROOT
ATOM      1  C   UNL     1      -0.243  -3.715  -0.336  0.00  0.00    +0.029 C 
ATOM      2  C   UNL     1      -0.128  -2.305   0.284  0.00  0.00    +0.047 C 
ATOM      3  C   UNL     1      -0.505  -2.231   1.805  0.00  0.00    +0.158 C 
ATOM      4  C   UNL     1      -1.639  -3.218   2.201  0.00  0.00    +0.174 C 
ATOM      5  C   UNL     1      -1.722  -4.534   1.405  0.00  0.00    +0.162 C 
ATOM      6  C   UNL     1      -1.611  -4.336  -0.117  0.00  0.00    +0.086 C 
ENDROOT
BRANCH   4   7
ATOM      7  O   UNL     1      -1.465  -3.542   3.600  0.00  0.00    -0.387 OA
ATOM      8  H   UNL     1      -2.322  -3.799   3.981  0.00  0.00    +0.210 HD
ENDBRANCH   4   7
BRANCH   5   9
ATOM      9  O   UNL     1      -2.927  -5.243   1.726  0.00  0.00    -0.388 OA
ATOM     10  H   UNL     1      -3.437  -4.689   2.341  0.00  0.00    +0.210 HD
ENDBRANCH   5   9
BRANCH   6  11
ATOM     11  N   UNL     1      -2.729  -3.532  -0.669  0.00  0.00    -0.302 NA
ATOM     12  H   UNL     1      -3.572  -3.772  -0.150  0.00  0.00    +0.123 HD
BRANCH  11  13
ATOM     13  C   UNL     1      -2.990  -3.721  -2.117  0.00  0.00    +0.109 C 
ATOM     14  C   UNL     1      -4.193  -4.576  -2.405  0.00  0.00    -0.002 C 
ATOM     15  C   UNL     1      -5.395  -4.074  -2.752  0.00  0.00    -0.016 C 
ATOM     16  C   UNL     1      -5.687  -2.601  -2.761  0.00  0.00    +0.173 C 
ATOM     17  C   UNL     1      -4.486  -1.675  -2.425  0.00  0.00    +0.177 C 
ATOM     18  C   UNL     1      -3.148  -2.335  -2.810  0.00  0.00    +0.166 C 
BRANCH  16  19
ATOM     19  O   UNL     1      -6.754  -2.374  -1.835  0.00  0.00    -0.385 OA
ATOM     20  H   UNL     1      -7.072  -3.239  -1.530  0.00  0.00    +0.210 HD
ENDBRANCH  16  19
BRANCH  17  21
ATOM     21  O   UNL     1      -4.653  -0.414  -3.097  0.00  0.00    -0.386 OA
ATOM     22  H   UNL     1      -5.028   0.222  -2.464  0.00  0.00    +0.210 HD
ENDBRANCH  17  21
BRANCH  18  23
ATOM     23  O   UNL     1      -2.043  -1.489  -2.466  0.00  0.00    -0.387 OA
ATOM     24  H   UNL     1      -2.424  -0.740  -1.967  0.00  0.00    +0.210 HD
ENDBRANCH  18  23
BRANCH  15  25
ATOM     25  C   UNL     1      -6.528  -4.957  -3.225  0.00  0.00    +0.189 C 
BRANCH  25  26
ATOM     26  O   UNL     1      -7.415  -5.215  -2.151  0.00  0.00    -0.391 OA
ATOM     27  H   UNL     1      -8.152  -4.577  -2.247  0.00  0.00    +0.210 HD
ENDBRANCH  25  26
ENDBRANCH  15  25
ENDBRANCH  11  13
ENDBRANCH   6  11
BRANCH   3  28
ATOM     28  O   UNL     1      -0.923  -0.857   2.075  0.00  0.00    -0.342 OA
BRANCH  28  29
ATOM     29  C   UNL     1      -1.979  -0.260   1.264  0.00  0.00    +0.282 C 
ATOM     30  C   UNL     1      -2.987   0.414   2.256  0.00  0.00    +0.201 C 
ATOM     31  C   UNL     1      -3.817   1.587   1.678  0.00  0.00    +0.179 C 
ATOM     32  C   UNL     1      -3.168   2.371   0.537  0.00  0.00    +0.177 C 
ATOM     33  C   UNL     1      -2.518   1.360  -0.399  0.00  0.00    +0.178 C 
ATOM     34  O   UNL     1      -1.482   0.737   0.368  0.00  0.00    -0.341 OA
BRANCH  30  35
ATOM     35  O   UNL     1      -3.920  -0.571   2.751  0.00  0.00    -0.384 OA
ATOM     36  H   UNL     1      -3.426  -1.132   3.378  0.00  0.00    +0.210 HD
ENDBRANCH  30  35
BRANCH  31  37
ATOM     37  O   UNL     1      -4.173   2.506   2.731  0.00  0.00    -0.386 OA
ATOM     38  H   UNL     1      -4.263   3.399   2.346  0.00  0.00    +0.210 HD
ENDBRANCH  31  37
BRANCH  32  39
ATOM     39  O   UNL     1      -4.146   3.172  -0.142  0.00  0.00    -0.386 OA
ATOM     40  H   UNL     1      -3.692   3.656  -0.860  0.00  0.00    +0.210 HD
ENDBRANCH  32  39
BRANCH  33  41
ATOM     41  C   UNL     1      -1.965   2.016  -1.665  0.00  0.00    +0.190 C 
BRANCH  41  42
ATOM     42  O   UNL     1      -2.435   1.389  -2.855  0.00  0.00    -0.392 OA
ATOM     43  H   UNL     1      -1.941   1.796  -3.596  0.00  0.00    +0.210 HD
ENDBRANCH  41  42
ENDBRANCH  33  41
ENDBRANCH  28  29
ENDBRANCH   3  28
BRANCH   2  44
ATOM     44  C   UNL     1       1.285  -1.791  -0.056  0.00  0.00    +0.162 C 
BRANCH  44  45
ATOM     45  O   UNL     1       1.402  -0.385   0.139  0.00  0.00    -0.395 OA
ATOM     46  H   UNL     1       2.124  -0.222   0.764  0.00  0.00    +0.209 HD
ENDBRANCH  44  45
ENDBRANCH   2  44
TORSDOF 18
ENDMDL
MODEL 7
REMARK VINA RESULT:     0.001      6.800     10.498
REMARK INTER + INTRA:          -3.091
REMARK INTER:                   0.000
REMARK INTRA:                  -3.091
REMARK UNBOUND:                -3.094
REMARK  Name = 
REMARK  18 active torsions:
REMARK  status: ('A' for Active; 'I' for Inactive)
REMARK    1  A    between atoms: C_2  and  C_33
REMARK    2  A    between atoms: C_3  and  O_21
REMARK    3  A    between atoms: C_4  and  O_20
REMARK    4  A    between atoms: C_5  and  O_19
REMARK    5  A    between atoms: C_6  and  N_7
REMARK    6  A    between atoms: N_7  and  C_8
REMARK    7  A    between atoms: C_10  and  C_17
REMARK    8  A    between atoms: C_11  and  O_16
REMARK    9  A    between atoms: C_12  and  O_15
REMARK   10  A    between atoms: C_13  and  O_14
REMARK   11  A    between atoms: C_17  and  O_18
REMARK   12  A    between atoms: O_21  and  C_22
REMARK   13  A    between atoms: C_23  and  O_32
REMARK   14  A    between atoms: C_24  and  O_31
REMARK   15  A    between atoms: C_25  and  O_30
REMARK   16  A    between atoms: C_26  and  C_28
REMARK   17  A    between atoms: C_28  and  O_29
REMARK   18  A    between atoms: C_33  and  O_34
REMARK                            x       y       z     vdW  Elec       q    Type
REMARK                         _______ _______ _______ _____ _____    ______ ____
ROOT
ATOM      1  C   UNL     1       1.705   0.642  -4.132  0.00  0.00    +0.029 C 
ATOM      2  C   UNL     1       3.154   1.170  -4.069  0.00  0.00    +0.047 C 
ATOM      3  C   UNL     1       3.280   2.677  -3.651  0.00  0.00    +0.158 C 
ATOM      4  C   UNL     1       2.103   3.553  -4.165  0.00  0.00    +0.174 C 
ATOM      5  C   UNL     1       0.736   2.860  -4.312  0.00  0.00    +0.162 C 
ATOM      6  C   UNL     1       0.814   1.495  -5.017  0.00  0.00    +0.086 C 
ENDROOT
BRANCH   4   7
ATOM      7  O   UNL     1       1.956   4.664  -3.252  0.00  0.00    -0.387 OA
ATOM      8  H   UNL     1       1.192   5.203  -3.520  0.00  0.00    +0.210 HD
ENDBRANCH   4   7
BRANCH   5   9
ATOM      9  O   UNL     1      -0.195   3.716  -4.990  0.00  0.00    -0.388 OA
ATOM     10  H   UNL     1       0.282   4.145  -5.720  0.00  0.00    +0.210 HD
ENDBRANCH   5   9
BRANCH   6  11
ATOM     11  N   UNL     1       1.291   1.606  -6.419  0.00  0.00    -0.302 NA
ATOM     12  H   UNL     1       0.915   2.468  -6.808  0.00  0.00    +0.123 HD
BRANCH  11  13
ATOM     13  C   UNL     1       0.917   0.477  -7.305  0.00  0.00    +0.109 C 
ATOM     14  C   UNL     1      -0.210   0.800  -8.247  0.00  0.00    -0.002 C 
ATOM     15  C   UNL     1      -0.026   1.120  -9.544  0.00  0.00    -0.016 C 
ATOM     16  C   UNL     1       1.336   1.310 -10.147  0.00  0.00    +0.173 C 
ATOM     17  C   UNL     1       2.536   1.032  -9.201  0.00  0.00    +0.177 C 
ATOM     18  C   UNL     1       2.162   0.006  -8.114  0.00  0.00    +0.166 C 
BRANCH  16  19
ATOM     19  O   UNL     1       1.401   2.653 -10.636  0.00  0.00    -0.385 OA
ATOM     20  H   UNL     1       0.711   3.167 -10.185  0.00  0.00    +0.210 HD
ENDBRANCH  16  19
BRANCH  17  21
ATOM     21  O   UNL     1       3.660   0.579  -9.975  0.00  0.00    -0.386 OA
ATOM     22  H   UNL     1       4.473   0.774  -9.478  0.00  0.00    +0.210 HD
ENDBRANCH  17  21
BRANCH  18  23
ATOM     23  O   UNL     1       3.263  -0.221  -7.224  0.00  0.00    -0.387 OA
ATOM     24  H   UNL     1       3.289  -1.186  -7.070  0.00  0.00    +0.210 HD
ENDBRANCH  18  23
BRANCH  15  25
ATOM     25  C   UNL     1      -1.181   1.248 -10.512  0.00  0.00    +0.189 C 
BRANCH  25  26
ATOM     26  O   UNL     1      -1.533   2.611 -10.661  0.00  0.00    -0.391 OA
ATOM     27  H   UNL     1      -2.351   2.624 -11.199  0.00  0.00    +0.210 HD
ENDBRANCH  25  26
ENDBRANCH  15  25
ENDBRANCH  11  13
ENDBRANCH   6  11
BRANCH   3  28
ATOM     28  O   UNL     1       4.544   3.168  -4.198  0.00  0.00    -0.342 OA
BRANCH  28  29
ATOM     29  C   UNL     1       4.810   3.016  -5.624  0.00  0.00    +0.282 C 
ATOM     30  C   UNL     1       5.328   4.402  -6.139  0.00  0.00    +0.201 C 
ATOM     31  C   UNL     1       6.226   4.359  -7.400  0.00  0.00    +0.179 C 
ATOM     32  C   UNL     1       7.028   3.075  -7.610  0.00  0.00    +0.177 C 
ATOM     33  C   UNL     1       6.108   1.904  -7.286  0.00  0.00    +0.178 C 
ATOM     34  O   UNL     1       5.807   2.027  -5.891  0.00  0.00    -0.341 OA
BRANCH  30  35
ATOM     35  O   UNL     1       4.207   5.264  -6.438  0.00  0.00    -0.384 OA
ATOM     36  H   UNL     1       3.636   4.771  -7.058  0.00  0.00    +0.210 HD
ENDBRANCH  30  35
BRANCH  31  37
ATOM     37  O   UNL     1       7.133   5.480  -7.400  0.00  0.00    -0.386 OA
ATOM     38  H   UNL     1       7.672   5.444  -8.213  0.00  0.00    +0.210 HD
ENDBRANCH  31  37
BRANCH  32  39
ATOM     39  O   UNL     1       7.523   3.005  -8.956  0.00  0.00    -0.386 OA
ATOM     40  H   UNL     1       8.497   2.937  -8.915  0.00  0.00    +0.210 HD
ENDBRANCH  32  39
BRANCH  33  41
ATOM     41  C   UNL     1       6.754   0.556  -7.606  0.00  0.00    +0.190 C 
BRANCH  41  42
ATOM     42  O   UNL     1       5.931  -0.261  -8.435  0.00  0.00    -0.392 OA
ATOM     43  H   UNL     1       6.517  -0.945  -8.820  0.00  0.00    +0.210 HD
ENDBRANCH  41  42
ENDBRANCH  33  41
ENDBRANCH  28  29
ENDBRANCH   3  28
BRANCH   2  44
ATOM     44  C   UNL     1       3.940   0.186  -3.180  0.00  0.00    +0.162 C 
BRANCH  44  45
ATOM     45  O   UNL     1       5.349   0.344  -3.327  0.00  0.00    -0.395 OA
ATOM     46  H   UNL     1       5.790  -0.236  -2.688  0.00  0.00    +0.209 HD
ENDBRANCH  44  45
ENDBRANCH   2  44
TORSDOF 18
ENDMDL
MODEL 8
REMARK VINA RESULT:     0.001      6.980     10.856
REMARK INTER + INTRA:          -3.091
REMARK INTER:                   0.000
REMARK INTRA:                  -3.091
REMARK UNBOUND:                -3.094
REMARK  Name = 
REMARK  18 active torsions:
REMARK  status: ('A' for Active; 'I' for Inactive)
REMARK    1  A    between atoms: C_2  and  C_33
REMARK    2  A    between atoms: C_3  and  O_21
REMARK    3  A    between atoms: C_4  and  O_20
REMARK    4  A    between atoms: C_5  and  O_19
REMARK    5  A    between atoms: C_6  and  N_7
REMARK    6  A    between atoms: N_7  and  C_8
REMARK    7  A    between atoms: C_10  and  C_17
REMARK    8  A    between atoms: C_11  and  O_16
REMARK    9  A    between atoms: C_12  and  O_15
REMARK   10  A    between atoms: C_13  and  O_14
REMARK   11  A    between atoms: C_17  and  O_18
REMARK   12  A    between atoms: O_21  and  C_22
REMARK   13  A    between atoms: C_23  and  O_32
REMARK   14  A    between atoms: C_24  and  O_31
REMARK   15  A    between atoms: C_25  and  O_30
REMARK   16  A    between atoms: C_26  and  C_28
REMARK   17  A    between atoms: C_28  and  O_29
REMARK   18  A    between atoms: C_33  and  O_34
REMARK                            x       y       z     vdW  Elec       q    Type
REMARK                         _______ _______ _______ _____ _____    ______ ____
ROOT
ATOM      1  C   UNL     1      -0.964  -1.368   2.265  0.00  0.00    +0.029 C 
ATOM      2  C   UNL     1      -1.564   0.004   2.641  0.00  0.00    +0.047 C 
ATOM      3  C   UNL     1      -1.111   0.552   4.040  0.00  0.00    +0.158 C 
ATOM      4  C   UNL     1      -0.893  -0.571   5.093  0.00  0.00    +0.174 C 
ATOM      5  C   UNL     1      -0.422  -1.938   4.562  0.00  0.00    +0.162 C 
ATOM      6  C   UNL     1      -1.209  -2.421   3.331  0.00  0.00    +0.086 C 
ENDROOT
BRANCH   4   7
ATOM      7  O   UNL     1       0.083  -0.091   6.046  0.00  0.00    -0.387 OA
ATOM      8  H   UNL     1       0.955  -0.464   5.831  0.00  0.00    +0.210 HD
ENDBRANCH   4   7
BRANCH   5   9
ATOM      9  O   UNL     1      -0.468  -2.927   5.600  0.00  0.00    -0.388 OA
ATOM     10  H   UNL     1      -1.175  -3.555   5.373  0.00  0.00    +0.210 HD
ENDBRANCH   5   9
BRANCH   6  11
ATOM     11  N   UNL     1      -2.646  -2.648   3.629  0.00  0.00    -0.302 NA
ATOM     12  H   UNL     1      -2.712  -3.019   4.575  0.00  0.00    +0.123 HD
BRANCH  11  13
ATOM     13  C   UNL     1      -3.345  -3.571   2.703  0.00  0.00    +0.109 C 
ATOM     14  C   UNL     1      -3.577  -4.941   3.280  0.00  0.00    -0.002 C 
ATOM     15  C   UNL     1      -4.758  -5.340   3.792  0.00  0.00    -0.016 C 
ATOM     16  C   UNL     1      -5.927  -4.412   3.955  0.00  0.00    +0.173 C 
ATOM     17  C   UNL     1      -5.723  -2.970   3.414  0.00  0.00    +0.177 C 
ATOM     18  C   UNL     1      -4.702  -2.948   2.261  0.00  0.00    +0.166 C 
BRANCH  16  19
ATOM     19  O   UNL     1      -6.247  -4.371   5.349  0.00  0.00    -0.385 OA
ATOM     20  H   UNL     1      -6.407  -3.444   5.590  0.00  0.00    +0.210 HD
ENDBRANCH  16  19
BRANCH  17  21
ATOM     21  O   UNL     1      -6.989  -2.433   2.996  0.00  0.00    -0.386 OA
ATOM     22  H   UNL     1      -7.037  -1.505   3.282  0.00  0.00    +0.210 HD
ENDBRANCH  17  21
BRANCH  18  23
ATOM     23  O   UNL     1      -4.492  -1.610   1.790  0.00  0.00    -0.387 OA
ATOM     24  H   UNL     1      -3.525  -1.468   1.806  0.00  0.00    +0.210 HD
ENDBRANCH  18  23
BRANCH  15  25
ATOM     25  C   UNL     1      -5.019  -6.778   4.184  0.00  0.00    +0.189 C 
BRANCH  25  26
ATOM     26  O   UNL     1      -4.839  -6.934   5.580  0.00  0.00    -0.391 OA
ATOM     27  H   UNL     1      -5.591  -6.473   6.005  0.00  0.00    +0.210 HD
ENDBRANCH  25  26
ENDBRANCH  15  25
ENDBRANCH  11  13
ENDBRANCH   6  11
BRANCH   3  28
ATOM     28  O   UNL     1      -2.153   1.470   4.497  0.00  0.00    -0.342 OA
BRANCH  28  29
ATOM     29  C   UNL     1      -3.534   1.005   4.561  0.00  0.00    +0.282 C 
ATOM     30  C   UNL     1      -4.093   1.435   5.960  0.00  0.00    +0.201 C 
ATOM     31  C   UNL     1      -5.630   1.613   6.046  0.00  0.00    +0.179 C 
ATOM     32  C   UNL     1      -6.333   2.004   4.746  0.00  0.00    +0.177 C 
ATOM     33  C   UNL     1      -5.721   1.170   3.627  0.00  0.00    +0.178 C 
ATOM     34  O   UNL     1      -4.353   1.586   3.543  0.00  0.00    -0.341 OA
BRANCH  30  35
ATOM     35  O   UNL     1      -3.718   0.460   6.958  0.00  0.00    -0.384 OA
ATOM     36  H   UNL     1      -3.159   0.928   7.608  0.00  0.00    +0.210 HD
ENDBRANCH  30  35
BRANCH  31  37
ATOM     37  O   UNL     1      -5.959   2.581   7.062  0.00  0.00    -0.386 OA
ATOM     38  H   UNL     1      -6.910   2.502   7.270  0.00  0.00    +0.210 HD
ENDBRANCH  31  37
BRANCH  32  39
ATOM     39  O   UNL     1      -7.748   1.788   4.856  0.00  0.00    -0.386 OA
ATOM     40  H   UNL     1      -8.014   1.998   5.772  0.00  0.00    +0.210 HD
ENDBRANCH  32  39
BRANCH  33  41
ATOM     41  C   UNL     1      -6.451   1.363   2.297  0.00  0.00    +0.190 C 
BRANCH  41  42
ATOM     42  O   UNL     1      -6.852   0.128   1.710  0.00  0.00    -0.392 OA
ATOM     43  H   UNL     1      -7.582  -0.218   2.264  0.00  0.00    +0.210 HD
ENDBRANCH  41  42
ENDBRANCH  33  41
ENDBRANCH  28  29
ENDBRANCH   3  28
BRANCH   2  44
ATOM     44  C   UNL     1      -1.277   0.947   1.456  0.00  0.00    +0.162 C 
BRANCH  44  45
ATOM     45  O   UNL     1      -2.075   2.127   1.508  0.00  0.00    -0.395 OA
ATOM     46  H   UNL     1      -1.763   2.737   0.823  0.00  0.00    +0.209 HD
ENDBRANCH  44  45
ENDBRANCH   2  44
TORSDOF 18
ENDMDL
MODEL 9
REMARK VINA RESULT:     0.002      6.392      9.564
REMARK INTER + INTRA:          -3.091
REMARK INTER:                   0.000
REMARK INTRA:                  -3.091
REMARK UNBOUND:                -3.094
REMARK  Name = 
REMARK  18 active torsions:
REMARK  status: ('A' for Active; 'I' for Inactive)
REMARK    1  A    between atoms: C_2  and  C_33
REMARK    2  A    between atoms: C_3  and  O_21
REMARK    3  A    between atoms: C_4  and  O_20
REMARK    4  A    between atoms: C_5  and  O_19
REMARK    5  A    between atoms: C_6  and  N_7
REMARK    6  A    between atoms: N_7  and  C_8
REMARK    7  A    between atoms: C_10  and  C_17
REMARK    8  A    between atoms: C_11  and  O_16
REMARK    9  A    between atoms: C_12  and  O_15
REMARK   10  A    between atoms: C_13  and  O_14
REMARK   11  A    between atoms: C_17  and  O_18
REMARK   12  A    between atoms: O_21  and  C_22
REMARK   13  A    between atoms: C_23  and  O_32
REMARK   14  A    between atoms: C_24  and  O_31
REMARK   15  A    between atoms: C_25  and  O_30
REMARK   16  A    between atoms: C_26  and  C_28
REMARK   17  A    between atoms: C_28  and  O_29
REMARK   18  A    between atoms: C_33  and  O_34
REMARK                            x       y       z     vdW  Elec       q    Type
REMARK                         _______ _______ _______ _____ _____    ______ ____
ROOT
ATOM      1  C   UNL     1      -0.356   1.646  -1.625  0.00  0.00    +0.029 C 
ATOM      2  C   UNL     1      -0.368   0.181  -2.112  0.00  0.00    +0.047 C 
ATOM      3  C   UNL     1       0.003  -0.004  -3.626  0.00  0.00    +0.158 C 
ATOM      4  C   UNL     1      -0.488   1.169  -4.521  0.00  0.00    +0.174 C 
ATOM      5  C   UNL     1      -0.558   2.560  -3.864  0.00  0.00    +0.162 C 
ATOM      6  C   UNL     1      -1.227   2.550  -2.479  0.00  0.00    +0.086 C 
ENDROOT
BRANCH   4   7
ATOM      7  O   UNL     1       0.399   1.247  -5.661  0.00  0.00    -0.387 OA
ATOM      8  H   UNL     1      -0.100   1.549  -6.439  0.00  0.00    +0.210 HD
ENDBRANCH   4   7
BRANCH   5   9
ATOM      9  O   UNL     1      -1.221   3.494  -4.728  0.00  0.00    -0.388 OA
ATOM     10  H   UNL     1      -1.199   4.363  -4.291  0.00  0.00    +0.210 HD
ENDBRANCH   5   9
BRANCH   6  11
ATOM     11  N   UNL     1      -2.650   2.128  -2.538  0.00  0.00    -0.302 NA
ATOM     12  H   UNL     1      -3.047   2.496  -3.401  0.00  0.00    +0.123 HD
BRANCH  11  13
ATOM     13  C   UNL     1      -3.488   2.572  -1.398  0.00  0.00    +0.109 C 
ATOM     14  C   UNL     1      -4.391   3.728  -1.729  0.00  0.00    -0.002 C 
ATOM     15  C   UNL     1      -5.703   3.590  -2.008  0.00  0.00    -0.016 C 
ATOM     16  C   UNL     1      -6.366   2.250  -2.142  0.00  0.00    +0.173 C 
ATOM     17  C   UNL     1      -5.464   1.019  -1.854  0.00  0.00    +0.177 C 
ATOM     18  C   UNL     1      -4.334   1.376  -0.869  0.00  0.00    +0.166 C 
BRANCH  16  19
ATOM     19  O   UNL     1      -6.896   2.168  -3.469  0.00  0.00    -0.385 OA
ATOM     20  H   UNL     1      -6.904   1.232  -3.728  0.00  0.00    +0.210 HD
ENDBRANCH  16  19
BRANCH  17  21
ATOM     21  O   UNL     1      -6.271  -0.058  -1.347  0.00  0.00    -0.386 OA
ATOM     22  H   UNL     1      -5.889  -0.898  -1.655  0.00  0.00    +0.210 HD
ENDBRANCH  17  21
BRANCH  18  23
ATOM     23  O   UNL     1      -3.485   0.245  -0.634  0.00  0.00    -0.387 OA
ATOM     24  H   UNL     1      -3.814  -0.464  -1.221  0.00  0.00    +0.210 HD
ENDBRANCH  18  23
BRANCH  15  25
ATOM     25  C   UNL     1      -6.625   4.781  -2.143  0.00  0.00    +0.189 C 
BRANCH  25  26
ATOM     26  O   UNL     1      -6.799   5.100  -3.512  0.00  0.00    -0.391 OA
ATOM     27  H   UNL     1      -7.763   5.208  -3.647  0.00  0.00    +0.210 HD
ENDBRANCH  25  26
ENDBRANCH  15  25
ENDBRANCH  11  13
ENDBRANCH   6  11
BRANCH   3  28
ATOM     28  O   UNL     1      -0.610  -1.257  -4.066  0.00  0.00    -0.342 OA
BRANCH  28  29
ATOM     29  C   UNL     1      -2.041  -1.458  -3.868  0.00  0.00    +0.282 C 
ATOM     30  C   UNL     1      -2.616  -1.993  -5.224  0.00  0.00    +0.201 C 
ATOM     31  C   UNL     1      -3.911  -2.835  -5.121  0.00  0.00    +0.179 C 
ATOM     32  C   UNL     1      -4.117  -3.591  -3.808  0.00  0.00    +0.177 C 
ATOM     33  C   UNL     1      -3.723  -2.653  -2.674  0.00  0.00    +0.178 C 
ATOM     34  O   UNL     1      -2.321  -2.415  -2.843  0.00  0.00    -0.341 OA
BRANCH  30  35
ATOM     35  O   UNL     1      -2.892  -0.885  -6.109  0.00  0.00    -0.384 OA
ATOM     36  H   UNL     1      -2.269  -0.965  -6.857  0.00  0.00    +0.210 HD
ENDBRANCH  30  35
BRANCH  31  37
ATOM     37  O   UNL     1      -3.979  -3.773  -6.214  0.00  0.00    -0.386 OA
ATOM     38  H   UNL     1      -3.500  -3.396  -6.977  0.00  0.00    +0.210 HD
ENDBRANCH  31  37
BRANCH  32  39
ATOM     39  O   UNL     1      -5.480  -4.027  -3.688  0.00  0.00    -0.386 OA
ATOM     40  H   UNL     1      -5.508  -4.984  -3.882  0.00  0.00    +0.210 HD
ENDBRANCH  32  39
BRANCH  33  41
ATOM     41  C   UNL     1      -4.032  -3.247  -1.299  0.00  0.00    +0.190 C 
BRANCH  41  42
ATOM     42  O   UNL     1      -4.803  -2.366  -0.485  0.00  0.00    -0.392 OA
ATOM     43  H   UNL     1      -4.623  -1.461  -0.810  0.00  0.00    +0.210 HD
ENDBRANCH  41  42
ENDBRANCH  33  41
ENDBRANCH  28  29
ENDBRANCH   3  28
BRANCH   2  44
ATOM     44  C   UNL     1       0.516  -0.614  -1.131  0.00  0.00    +0.162 C 
BRANCH  44  45
ATOM     45  O   UNL     1       0.307  -2.019  -1.244  0.00  0.00    -0.395 OA
ATOM     46  H   UNL     1       0.922  -2.366  -1.908  0.00  0.00    +0.209 HD
ENDBRANCH  44  45
ENDBRANCH   2  44
TORSDOF 18
ENDMDL
