MODEL 1
REMARK VINA RESULT:    -5.297      0.000      0.000
REMARK INTER + INTRA:         -20.916
REMARK INTER:                 -13.814
REMARK INTRA:                  -7.103
REMARK UNBOUND:                -7.103
REMARK  Name = 
REMARK  36 active torsions:
REMARK  status: ('A' for Active; 'I' for Inactive)
REMARK    1  A    between atoms: C_1  and  C_2
REMARK    2  A    between atoms: C_2  and  C_3
REMARK    3  A    between atoms: C_3  and  C_4
REMARK    4  A    between atoms: C_3  and  C_5
REMARK    5  A    between atoms: C_5  and  C_6
REMARK    6  A    between atoms: C_6  and  C_7
REMARK    7  A    between atoms: C_8  and  C_9
REMARK    8  A    between atoms: C_10  and  C_11
REMARK    9  A    between atoms: C_10  and  C_12
REMARK   10  A    between atoms: C_12  and  C_13
REMARK   11  A    between atoms: C_12  and  O_64
REMARK   12  A    between atoms: C_13  and  C_14
REMARK   13  A    between atoms: C_15  and  C_16
REMARK   14  A    between atoms: C_17  and  C_18
REMARK   15  A    between atoms: C_18  and  O_20
REMARK   16  A    between atoms: O_20  and  C_21
REMARK   17  A    between atoms: C_22  and  O_40
REMARK   18  A    between atoms: C_23  and  C_38
REMARK   19  A    between atoms: C_26  and  O_27
REMARK   20  A    between atoms: C_33  and  O_37
REMARK   21  A    between atoms: C_35  and  O_36
REMARK   22  A    between atoms: C_38  and  O_39
REMARK   23  A    between atoms: O_40  and  C_41
REMARK   24  A    between atoms: C_42  and  O_63
REMARK   25  A    between atoms: C_43  and  O_62
REMARK   26  A    between atoms: C_44  and  O_61
REMARK   27  A    between atoms: C_45  and  C_47
REMARK   28  A    between atoms: C_47  and  O_48
REMARK   29  A    between atoms: O_48  and  C_49
REMARK   30  A    between atoms: C_49  and  C_51
REMARK   31  A    between atoms: C_52  and  C_53
REMARK   32  A    between atoms: C_54  and  C_55
REMARK   33  A    between atoms: C_56  and  C_57
REMARK   34  A    between atoms: C_57  and  C_58
REMARK   35  A    between atoms: C_57  and  O_60
REMARK   36  A    between atoms: C_58  and  C_59
REMARK                            x       y       z     vdW  Elec       q    Type
REMARK                         _______ _______ _______ _____ _____    ______ ____
ROOT
ATOM      1  C   UNL     1     101.154 134.040  72.081  0.00  0.00    +0.242 C 
ATOM      2  C   UNL     1     101.006 132.555  71.633  0.00  0.00    +0.196 C 
ATOM      3  C   UNL     1     102.385 132.222  70.985  0.00  0.00    +0.180 C 
ATOM      4  O   UNL     1     102.612 133.022  69.797  0.00  0.00    -0.334 OA
ATOM      5  C   UNL     1     102.574 134.440  70.032  0.00  0.00    +0.231 C 
ATOM      6  C   UNL     1     101.280 134.880  70.788  0.00  0.00    +0.222 C 
ATOM      7  C   UNL     1     102.804 135.197  68.753  0.00  0.00    +0.061 A 
ATOM      8  C   UNL     1     103.965 135.953  68.860  0.00  0.00    -0.007 A 
ATOM      9  C   UNL     1     104.589 135.721  70.177  0.00  0.00    +0.199 C 
ATOM     10  O   UNL     1     103.711 134.814  70.870  0.00  0.00    -0.338 OA
ATOM     11  C   UNL     1     104.394 136.807  67.848  0.00  0.00    +0.052 A 
ATOM     12  C   UNL     1     103.622 136.882  66.695  0.00  0.00    +0.121 A 
ATOM     13  C   UNL     1     102.458 136.124  66.560  0.00  0.00    +0.091 A 
ATOM     14  C   UNL     1     102.047 135.282  67.598  0.00  0.00    +0.129 A 
ENDROOT
BRANCH  12  15
ATOM     15  O   UNL     1     103.964 137.708  65.665  0.00  0.00    -0.507 OA
ATOM     16  H   UNL     1     104.922 137.849  65.687  0.00  0.00    +0.292 HD
ENDBRANCH  12  15
BRANCH   6  17
ATOM     17  O   UNL     1     101.287 136.279  71.134  0.00  0.00    -0.382 OA
ATOM     18  H   UNL     1     101.600 136.751  70.352  0.00  0.00    +0.210 HD
ENDBRANCH   6  17
BRANCH  14  19
ATOM     19  O   UNL     1     100.900 134.562  67.490  0.00  0.00    -0.506 OA
ATOM     20  H   UNL     1     100.827 134.270  66.567  0.00  0.00    +0.292 HD
ENDBRANCH  14  19
BRANCH   1  21
ATOM     21  O   UNL     1     100.083 134.582  72.912  0.00  0.00    -0.453 OA
BRANCH  21  22
ATOM     22  C   UNL     1     100.400 134.717  74.244  0.00  0.00    +0.332 C 
ATOM     23  O   UNL     1     101.361 135.326  74.688  0.00  0.00    -0.246 OA
BRANCH  22  25
ATOM     24  C   UNL     1      99.901 133.321  76.184  0.00  0.00    +0.007 C 
ATOM     25  C   UNL     1      99.446 133.965  75.093  0.00  0.00    +0.091 C 
BRANCH  24  27
ATOM     26  C   UNL     1      97.777 132.276  76.853  0.00  0.00    -0.024 C 
ATOM     27  C   UNL     1      99.075 132.544  77.092  0.00  0.00    -0.004 C 
BRANCH  26  28
ATOM     28  C   UNL     1      96.848 131.555  77.819  0.00  0.00    +0.063 C 
BRANCH  28  29
ATOM     29  C   UNL     1      95.500 132.275  78.105  0.00  0.00    +0.144 C 
BRANCH  29  31
ATOM     30  C   UNL     1      93.848 132.939  76.344  0.00  0.00    +0.001 C 
ATOM     31  C   UNL     1      94.398 131.946  77.089  0.00  0.00    -0.044 C 
ATOM     32  C   UNL     1      94.019 130.490  76.976  0.00  0.00    +0.042 C 
BRANCH  30  34
ATOM     33  C   UNL     1      91.871 133.747  75.105  0.00  0.00    -0.027 C 
ATOM     34  C   UNL     1      92.794 132.804  75.358  0.00  0.00    -0.004 C 
BRANCH  33  35
ATOM     35  C   UNL     1      90.774 133.540  74.098  0.00  0.00    +0.027 C 
BRANCH  35  36
ATOM     36  C   UNL     1      89.597 132.736  74.661  0.00  0.00    +0.007 C 
BRANCH  36  37
ATOM     37  C   UNL     1      88.346 132.787  73.751  0.00  0.00    -0.014 C 
ATOM     38  C   UNL     1      87.788 131.385  73.473  0.00  0.00    +0.007 C 
BRANCH  37  40
ATOM     39  C   UNL     1      87.483 134.132  71.743  0.00  0.00    +0.004 C 
ATOM     40  C   UNL     1      88.693 133.524  72.442  0.00  0.00    -0.000 C 
ENDBRANCH  37  40
ENDBRANCH  36  37
ENDBRANCH  35  36
ENDBRANCH  33  35
ENDBRANCH  30  34
ENDBRANCH  29  31
BRANCH  29  41
ATOM     41  O   UNL     1      95.667 133.692  78.124  0.00  0.00    -0.387 OA
ATOM     42  H   UNL     1      94.979 134.077  77.558  0.00  0.00    +0.210 HD
ENDBRANCH  29  41
ENDBRANCH  28  29
ENDBRANCH  26  28
ENDBRANCH  24  27
ENDBRANCH  22  25
ENDBRANCH  21  22
ENDBRANCH   1  21
BRANCH   2  43
ATOM     43  O   UNL     1     100.704 131.596  72.653  0.00  0.00    -0.339 OA
BRANCH  43  44
ATOM     44  C   UNL     1      99.406 131.007  72.643  0.00  0.00    +0.282 C 
ATOM     45  C   UNL     1      98.821 130.533  74.004  0.00  0.00    +0.201 C 
ATOM     46  C   UNL     1      97.431 129.899  73.736  0.00  0.00    +0.179 C 
ATOM     47  C   UNL     1      96.529 130.801  72.876  0.00  0.00    +0.178 C 
ATOM     48  C   UNL     1      97.286 131.254  71.617  0.00  0.00    +0.190 C 
ATOM     49  O   UNL     1      98.485 131.936  72.041  0.00  0.00    -0.339 OA
BRANCH  45  50
ATOM     50  O   UNL     1      99.663 129.585  74.676  0.00  0.00    -0.384 OA
ATOM     51  H   UNL     1      99.153 129.143  75.377  0.00  0.00    +0.210 HD
ENDBRANCH  45  50
BRANCH  46  52
ATOM     52  O   UNL     1      96.769 129.574  74.964  0.00  0.00    -0.386 OA
ATOM     53  H   UNL     1      96.839 128.605  75.081  0.00  0.00    +0.210 HD
ENDBRANCH  46  52
BRANCH  47  54
ATOM     54  O   UNL     1      96.114 131.918  73.678  0.00  0.00    -0.386 OA
ATOM     55  H   UNL     1      95.293 132.287  73.297  0.00  0.00    +0.210 HD
ENDBRANCH  47  54
BRANCH  48  56
ATOM     56  C   UNL     1      96.451 132.178  70.718  0.00  0.00    +0.266 C 
BRANCH  56  57
ATOM     57  O   UNL     1      95.048 131.820  70.731  0.00  0.00    -0.459 OA
BRANCH  57  58
ATOM     58  C   UNL     1      94.181 132.851  70.887  0.00  0.00    +0.332 C 
ATOM     59  O   UNL     1      94.410 134.024  70.634  0.00  0.00    -0.246 OA
BRANCH  58  60
ATOM     60  C   UNL     1      92.906 132.324  71.419  0.00  0.00    +0.091 C 
ATOM     61  C   UNL     1      92.863 131.076  71.910  0.00  0.00    +0.007 C 
BRANCH  61  62
ATOM     62  C   UNL     1      91.667 130.458  72.460  0.00  0.00    +0.000 C 
ATOM     63  C   UNL     1      91.664 129.744  73.599  0.00  0.00    -0.000 C 
BRANCH  63  64
ATOM     64  C   UNL     1      90.460 129.127  74.123  0.00  0.00    -0.002 C 
ATOM     65  C   UNL     1      90.095 129.140  75.420  0.00  0.00    +0.004 C 
BRANCH  65  66
ATOM     66  C   UNL     1      88.872 128.447  75.997  0.00  0.00    +0.137 C 
BRANCH  66  67
ATOM     67  O   UNL     1      88.144 127.748  74.985  0.00  0.00    -0.388 OA
ATOM     68  H   UNL     1      87.322 127.437  75.403  0.00  0.00    +0.210 HD
ENDBRANCH  66  67
BRANCH  66  69
ATOM     69  C   UNL     1      87.904 129.412  76.694  0.00  0.00    +0.032 C 
ATOM     70  C   UNL     1      88.644 130.541  77.410  0.00  0.00    +0.007 C 
ENDBRANCH  66  69
ENDBRANCH  65  66
ENDBRANCH  63  64
ENDBRANCH  61  62
ENDBRANCH  58  60
ENDBRANCH  57  58
ENDBRANCH  56  57
ENDBRANCH  48  56
ENDBRANCH  43  44
ENDBRANCH   2  43
BRANCH   3  71
ATOM     71  C   UNL     1     102.544 130.739  70.618  0.00  0.00    +0.190 C 
BRANCH  71  72
ATOM     72  O   UNL     1     101.405 130.305  69.864  0.00  0.00    -0.392 OA
ATOM     73  H   UNL     1     101.683 130.331  68.927  0.00  0.00    +0.210 HD
ENDBRANCH  71  72
ENDBRANCH   3  71
TORSDOF 32
ENDMDL
MODEL 2
REMARK VINA RESULT:    -5.074      1.688      2.469
REMARK INTER + INTRA:         -20.333
REMARK INTER:                 -13.726
REMARK INTRA:                  -6.607
REMARK UNBOUND:                -7.103
REMARK  Name = 
REMARK  36 active torsions:
REMARK  status: ('A' for Active; 'I' for Inactive)
REMARK    1  A    between atoms: C_1  and  C_2
REMARK    2  A    between atoms: C_2  and  C_3
REMARK    3  A    between atoms: C_3  and  C_4
REMARK    4  A    between atoms: C_3  and  C_5
REMARK    5  A    between atoms: C_5  and  C_6
REMARK    6  A    between atoms: C_6  and  C_7
REMARK    7  A    between atoms: C_8  and  C_9
REMARK    8  A    between atoms: C_10  and  C_11
REMARK    9  A    between atoms: C_10  and  C_12
REMARK   10  A    between atoms: C_12  and  C_13
REMARK   11  A    between atoms: C_12  and  O_64
REMARK   12  A    between atoms: C_13  and  C_14
REMARK   13  A    between atoms: C_15  and  C_16
REMARK   14  A    between atoms: C_17  and  C_18
REMARK   15  A    between atoms: C_18  and  O_20
REMARK   16  A    between atoms: O_20  and  C_21
REMARK   17  A    between atoms: C_22  and  O_40
REMARK   18  A    between atoms: C_23  and  C_38
REMARK   19  A    between atoms: C_26  and  O_27
REMARK   20  A    between atoms: C_33  and  O_37
REMARK   21  A    between atoms: C_35  and  O_36
REMARK   22  A    between atoms: C_38  and  O_39
REMARK   23  A    between atoms: O_40  and  C_41
REMARK   24  A    between atoms: C_42  and  O_63
REMARK   25  A    between atoms: C_43  and  O_62
REMARK   26  A    between atoms: C_44  and  O_61
REMARK   27  A    between atoms: C_45  and  C_47
REMARK   28  A    between atoms: C_47  and  O_48
REMARK   29  A    between atoms: O_48  and  C_49
REMARK   30  A    between atoms: C_49  and  C_51
REMARK   31  A    between atoms: C_52  and  C_53
REMARK   32  A    between atoms: C_54  and  C_55
REMARK   33  A    between atoms: C_56  and  C_57
REMARK   34  A    between atoms: C_57  and  C_58
REMARK   35  A    between atoms: C_57  and  O_60
REMARK   36  A    between atoms: C_58  and  C_59
REMARK                            x       y       z     vdW  Elec       q    Type
REMARK                         _______ _______ _______ _____ _____    ______ ____
ROOT
ATOM      1  C   UNL     1     100.664 133.967  72.011  0.00  0.00    +0.242 C 
ATOM      2  C   UNL     1     100.730 132.452  71.656  0.00  0.00    +0.196 C 
ATOM      3  C   UNL     1     102.199 132.243  71.177  0.00  0.00    +0.180 C 
ATOM      4  O   UNL     1     102.464 132.994  69.964  0.00  0.00    -0.334 OA
ATOM      5  C   UNL     1     102.247 134.409  70.094  0.00  0.00    +0.231 C 
ATOM      6  C   UNL     1     100.838 134.739  70.682  0.00  0.00    +0.222 C 
ATOM      7  C   UNL     1     102.530 135.112  68.796  0.00  0.00    +0.061 A 
ATOM      8  C   UNL     1     103.583 136.002  68.966  0.00  0.00    -0.007 A 
ATOM      9  C   UNL     1     104.081 135.922  70.353  0.00  0.00    +0.199 C 
ATOM     10  O   UNL     1     103.238 134.961  71.015  0.00  0.00    -0.338 OA
ATOM     11  C   UNL     1     104.024 136.841  67.945  0.00  0.00    +0.052 A 
ATOM     12  C   UNL     1     103.378 136.758  66.718  0.00  0.00    +0.121 A 
ATOM     13  C   UNL     1     102.325 135.863  66.519  0.00  0.00    +0.091 A 
ATOM     14  C   UNL     1     101.899 135.041  67.566  0.00  0.00    +0.129 A 
ENDROOT
BRANCH  12  15
ATOM     15  O   UNL     1     103.737 137.557  65.672  0.00  0.00    -0.507 OA
ATOM     16  H   UNL     1     103.480 138.468  65.877  0.00  0.00    +0.292 HD
ENDBRANCH  12  15
BRANCH   6  17
ATOM     17  O   UNL     1     100.654 136.148  70.928  0.00  0.00    -0.382 OA
ATOM     18  H   UNL     1     101.464 136.583  70.635  0.00  0.00    +0.210 HD
ENDBRANCH   6  17
BRANCH  14  19
ATOM     19  O   UNL     1     100.856 134.188  67.394  0.00  0.00    -0.506 OA
ATOM     20  H   UNL     1     101.107 133.339  67.792  0.00  0.00    +0.292 HD
ENDBRANCH  14  19
BRANCH   1  21
ATOM     21  O   UNL     1      99.456 134.428  72.690  0.00  0.00    -0.453 OA
BRANCH  21  22
ATOM     22  C   UNL     1      99.587 134.591  74.049  0.00  0.00    +0.332 C 
ATOM     23  O   UNL     1     100.633 134.523  74.677  0.00  0.00    -0.246 OA
BRANCH  22  25
ATOM     24  C   UNL     1      97.182 134.984  73.908  0.00  0.00    +0.007 C 
ATOM     25  C   UNL     1      98.265 134.806  74.685  0.00  0.00    +0.091 C 
BRANCH  24  27
ATOM     26  C   UNL     1      94.994 136.108  73.851  0.00  0.00    -0.024 C 
ATOM     27  C   UNL     1      95.835 135.212  74.403  0.00  0.00    -0.004 C 
BRANCH  26  28
ATOM     28  C   UNL     1      93.616 136.453  74.395  0.00  0.00    +0.063 C 
BRANCH  28  29
ATOM     29  C   UNL     1      92.820 135.258  74.992  0.00  0.00    +0.144 C 
BRANCH  29  31
ATOM     30  C   UNL     1      91.114 135.474  73.171  0.00  0.00    +0.001 C 
ATOM     31  C   UNL     1      91.384 135.146  74.461  0.00  0.00    -0.044 C 
ATOM     32  C   UNL     1      90.357 134.636  75.441  0.00  0.00    +0.042 C 
BRANCH  30  34
ATOM     33  C   UNL     1      89.234 134.319  72.064  0.00  0.00    -0.027 C 
ATOM     34  C   UNL     1      89.821 135.440  72.519  0.00  0.00    -0.004 C 
BRANCH  33  35
ATOM     35  C   UNL     1      87.907 134.345  71.357  0.00  0.00    +0.027 C 
BRANCH  35  36
ATOM     36  C   UNL     1      86.747 133.906  72.257  0.00  0.00    +0.007 C 
BRANCH  36  37
ATOM     37  C   UNL     1      87.108 132.700  73.157  0.00  0.00    -0.014 C 
ATOM     38  C   UNL     1      86.293 131.453  72.790  0.00  0.00    +0.007 C 
BRANCH  37  40
ATOM     39  C   UNL     1      87.640 132.171  75.611  0.00  0.00    +0.004 C 
ATOM     40  C   UNL     1      86.908 133.086  74.637  0.00  0.00    -0.000 C 
ENDBRANCH  37  40
ENDBRANCH  36  37
ENDBRANCH  35  36
ENDBRANCH  33  35
ENDBRANCH  30  34
ENDBRANCH  29  31
BRANCH  29  41
ATOM     41  O   UNL     1      92.752 135.343  76.414  0.00  0.00    -0.387 OA
ATOM     42  H   UNL     1      93.444 134.766  76.777  0.00  0.00    +0.210 HD
ENDBRANCH  29  41
ENDBRANCH  28  29
ENDBRANCH  26  28
ENDBRANCH  24  27
ENDBRANCH  22  25
ENDBRANCH  21  22
ENDBRANCH   1  21
BRANCH   2  43
ATOM     43  O   UNL     1     100.425 131.525  72.705  0.00  0.00    -0.339 OA
BRANCH  43  44
ATOM     44  C   UNL     1      99.132 130.924  72.702  0.00  0.00    +0.282 C 
ATOM     45  C   UNL     1      98.520 130.529  74.077  0.00  0.00    +0.201 C 
ATOM     46  C   UNL     1      97.141 129.868  73.818  0.00  0.00    +0.179 C 
ATOM     47  C   UNL     1      96.252 130.708  72.884  0.00  0.00    +0.178 C 
ATOM     48  C   UNL     1      97.034 131.091  71.618  0.00  0.00    +0.190 C 
ATOM     49  O   UNL     1      98.218 131.807  72.025  0.00  0.00    -0.339 OA
BRANCH  45  50
ATOM     50  O   UNL     1      99.354 129.632  74.823  0.00  0.00    -0.384 OA
ATOM     51  H   UNL     1      99.908 130.144  75.438  0.00  0.00    +0.210 HD
ENDBRANCH  45  50
BRANCH  46  52
ATOM     52  O   UNL     1      96.454 129.612  75.048  0.00  0.00    -0.386 OA
ATOM     53  H   UNL     1      96.628 130.373  75.639  0.00  0.00    +0.210 HD
ENDBRANCH  46  52
BRANCH  47  54
ATOM     54  O   UNL     1      95.811 131.868  73.608  0.00  0.00    -0.386 OA
ATOM     55  H   UNL     1      96.541 132.174  74.181  0.00  0.00    +0.210 HD
ENDBRANCH  47  54
BRANCH  48  56
ATOM     56  C   UNL     1      96.213 131.951  70.645  0.00  0.00    +0.266 C 
BRANCH  56  57
ATOM     57  O   UNL     1      96.004 133.291  71.154  0.00  0.00    -0.459 OA
BRANCH  57  58
ATOM     58  C   UNL     1      94.824 133.868  70.820  0.00  0.00    +0.332 C 
ATOM     59  O   UNL     1      94.666 135.034  70.487  0.00  0.00    -0.246 OA
BRANCH  58  60
ATOM     60  C   UNL     1      93.751 132.856  70.924  0.00  0.00    +0.091 C 
ATOM     61  C   UNL     1      92.986 132.821  72.025  0.00  0.00    +0.007 C 
BRANCH  61  62
ATOM     62  C   UNL     1      91.903 131.872  72.234  0.00  0.00    +0.000 C 
ATOM     63  C   UNL     1      91.394 131.590  73.446  0.00  0.00    -0.000 C 
BRANCH  63  64
ATOM     64  C   UNL     1      90.321 130.631  73.631  0.00  0.00    -0.002 C 
ATOM     65  C   UNL     1      90.307 129.670  74.575  0.00  0.00    +0.004 C 
BRANCH  65  66
ATOM     66  C   UNL     1      89.223 128.619  74.744  0.00  0.00    +0.137 C 
BRANCH  66  67
ATOM     67  O   UNL     1      88.159 128.812  73.809  0.00  0.00    -0.388 OA
ATOM     68  H   UNL     1      88.533 129.322  73.069  0.00  0.00    +0.210 HD
ENDBRANCH  66  67
BRANCH  66  69
ATOM     69  C   UNL     1      88.615 128.600  76.153  0.00  0.00    +0.032 C 
ATOM     70  C   UNL     1      87.855 127.303  76.426  0.00  0.00    +0.007 C 
ENDBRANCH  66  69
ENDBRANCH  65  66
ENDBRANCH  63  64
ENDBRANCH  61  62
ENDBRANCH  58  60
ENDBRANCH  57  58
ENDBRANCH  56  57
ENDBRANCH  48  56
ENDBRANCH  43  44
ENDBRANCH   2  43
BRANCH   3  71
ATOM     71  C   UNL     1     102.558 130.770  70.932  0.00  0.00    +0.190 C 
BRANCH  71  72
ATOM     72  O   UNL     1     101.625 130.195  70.009  0.00  0.00    -0.392 OA
ATOM     73  H   UNL     1     101.425 130.899  69.361  0.00  0.00    +0.210 HD
ENDBRANCH  71  72
ENDBRANCH   3  71
TORSDOF 32
ENDMDL
MODEL 3
REMARK VINA RESULT:    -4.935      3.466      8.585
REMARK INTER + INTRA:         -19.970
REMARK INTER:                 -12.288
REMARK INTRA:                  -7.682
REMARK UNBOUND:                -7.103
REMARK  Name = 
REMARK  36 active torsions:
REMARK  status: ('A' for Active; 'I' for Inactive)
REMARK    1  A    between atoms: C_1  and  C_2
REMARK    2  A    between atoms: C_2  and  C_3
REMARK    3  A    between atoms: C_3  and  C_4
REMARK    4  A    between atoms: C_3  and  C_5
REMARK    5  A    between atoms: C_5  and  C_6
REMARK    6  A    between atoms: C_6  and  C_7
REMARK    7  A    between atoms: C_8  and  C_9
REMARK    8  A    between atoms: C_10  and  C_11
REMARK    9  A    between atoms: C_10  and  C_12
REMARK   10  A    between atoms: C_12  and  C_13
REMARK   11  A    between atoms: C_12  and  O_64
REMARK   12  A    between atoms: C_13  and  C_14
REMARK   13  A    between atoms: C_15  and  C_16
REMARK   14  A    between atoms: C_17  and  C_18
REMARK   15  A    between atoms: C_18  and  O_20
REMARK   16  A    between atoms: O_20  and  C_21
REMARK   17  A    between atoms: C_22  and  O_40
REMARK   18  A    between atoms: C_23  and  C_38
REMARK   19  A    between atoms: C_26  and  O_27
REMARK   20  A    between atoms: C_33  and  O_37
REMARK   21  A    between atoms: C_35  and  O_36
REMARK   22  A    between atoms: C_38  and  O_39
REMARK   23  A    between atoms: O_40  and  C_41
REMARK   24  A    between atoms: C_42  and  O_63
REMARK   25  A    between atoms: C_43  and  O_62
REMARK   26  A    between atoms: C_44  and  O_61
REMARK   27  A    between atoms: C_45  and  C_47
REMARK   28  A    between atoms: C_47  and  O_48
REMARK   29  A    between atoms: O_48  and  C_49
REMARK   30  A    between atoms: C_49  and  C_51
REMARK   31  A    between atoms: C_52  and  C_53
REMARK   32  A    between atoms: C_54  and  C_55
REMARK   33  A    between atoms: C_56  and  C_57
REMARK   34  A    between atoms: C_57  and  C_58
REMARK   35  A    between atoms: C_57  and  O_60
REMARK   36  A    between atoms: C_58  and  C_59
REMARK                            x       y       z     vdW  Elec       q    Type
REMARK                         _______ _______ _______ _____ _____    ______ ____
ROOT
ATOM      1  C   UNL     1      96.813 132.254  71.831  0.00  0.00    +0.242 C 
ATOM      2  C   UNL     1      96.786 131.853  73.336  0.00  0.00    +0.196 C 
ATOM      3  C   UNL     1      97.955 132.673  73.963  0.00  0.00    +0.180 C 
ATOM      4  O   UNL     1      99.234 132.259  73.417  0.00  0.00    -0.334 OA
ATOM      5  C   UNL     1      99.329 132.390  71.989  0.00  0.00    +0.231 C 
ATOM      6  C   UNL     1      98.137 131.702  71.251  0.00  0.00    +0.222 C 
ATOM      7  C   UNL     1     100.675 131.931  71.502  0.00  0.00    +0.061 A 
ATOM      8  C   UNL     1     101.345 132.994  70.907  0.00  0.00    -0.007 A 
ATOM      9  C   UNL     1     100.516 134.212  70.992  0.00  0.00    +0.199 C 
ATOM     10  O   UNL     1      99.294 133.808  71.636  0.00  0.00    -0.338 OA
ATOM     11  C   UNL     1     102.592 132.847  70.306  0.00  0.00    +0.052 A 
ATOM     12  C   UNL     1     103.174 131.586  70.324  0.00  0.00    +0.121 A 
ATOM     13  C   UNL     1     102.526 130.506  70.927  0.00  0.00    +0.091 A 
ATOM     14  C   UNL     1     101.269 130.681  71.513  0.00  0.00    +0.129 A 
ENDROOT
BRANCH  12  15
ATOM     15  O   UNL     1     104.385 131.354  69.743  0.00  0.00    -0.507 OA
ATOM     16  H   UNL     1     104.358 131.679  68.831  0.00  0.00    +0.292 HD
ENDBRANCH  12  15
BRANCH   6  17
ATOM     17  O   UNL     1      98.158 131.928  69.827  0.00  0.00    -0.382 OA
ATOM     18  H   UNL     1      98.819 132.615  69.671  0.00  0.00    +0.210 HD
ENDBRANCH   6  17
BRANCH  14  19
ATOM     19  O   UNL     1     100.617 129.631  72.075  0.00  0.00    -0.506 OA
ATOM     20  H   UNL     1     101.181 128.849  71.969  0.00  0.00    +0.292 HD
ENDBRANCH  14  19
BRANCH   1  21
ATOM     21  O   UNL     1      95.693 131.799  71.012  0.00  0.00    -0.453 OA
BRANCH  21  22
ATOM     22  C   UNL     1      94.786 132.778  70.681  0.00  0.00    +0.332 C 
ATOM     23  O   UNL     1      93.781 132.619  70.006  0.00  0.00    -0.246 OA
BRANCH  22  25
ATOM     24  C   UNL     1      94.889 135.213  70.531  0.00  0.00    +0.007 C 
ATOM     25  C   UNL     1      95.217 134.096  71.206  0.00  0.00    +0.091 C 
BRANCH  24  27
ATOM     26  C   UNL     1      95.373 136.935  72.220  0.00  0.00    -0.024 C 
ATOM     27  C   UNL     1      95.256 136.561  70.931  0.00  0.00    -0.004 C 
BRANCH  26  28
ATOM     28  C   UNL     1      95.655 138.356  72.688  0.00  0.00    +0.063 C 
BRANCH  28  29
ATOM     29  C   UNL     1      97.101 138.611  73.199  0.00  0.00    +0.144 C 
BRANCH  29  31
ATOM     30  C   UNL     1      98.714 137.791  71.468  0.00  0.00    +0.001 C 
ATOM     31  C   UNL     1      98.119 138.849  72.075  0.00  0.00    -0.044 C 
ATOM     32  C   UNL     1      98.365 140.291  71.704  0.00  0.00    +0.042 C 
BRANCH  30  34
ATOM     33  C   UNL     1      99.407 138.023  69.109  0.00  0.00    -0.027 C 
ATOM     34  C   UNL     1      99.702 137.840  70.408  0.00  0.00    -0.004 C 
BRANCH  33  35
ATOM     35  C   UNL     1     100.468 138.026  68.044  0.00  0.00    +0.027 C 
BRANCH  35  36
ATOM     36  C   UNL     1     101.472 136.880  68.205  0.00  0.00    +0.007 C 
BRANCH  36  37
ATOM     37  C   UNL     1     102.882 137.369  68.615  0.00  0.00    -0.014 C 
ATOM     38  C   UNL     1     103.681 137.877  67.407  0.00  0.00    +0.007 C 
BRANCH  37  40
ATOM     39  C   UNL     1     103.703 136.424  70.853  0.00  0.00    +0.004 C 
ATOM     40  C   UNL     1     103.628 136.234  69.344  0.00  0.00    -0.000 C 
ENDBRANCH  37  40
ENDBRANCH  36  37
ENDBRANCH  35  36
ENDBRANCH  33  35
ENDBRANCH  30  34
ENDBRANCH  29  31
BRANCH  29  41
ATOM     41  O   UNL     1      97.569 137.519  73.987  0.00  0.00    -0.387 OA
ATOM     42  H   UNL     1      97.644 136.746  73.405  0.00  0.00    +0.210 HD
ENDBRANCH  29  41
ENDBRANCH  28  29
ENDBRANCH  26  28
ENDBRANCH  24  27
ENDBRANCH  22  25
ENDBRANCH  21  22
ENDBRANCH   1  21
BRANCH   2  43
ATOM     43  O   UNL     1      95.573 132.109  74.054  0.00  0.00    -0.339 OA
BRANCH  43  44
ATOM     44  C   UNL     1      94.571 131.094  74.042  0.00  0.00    +0.282 C 
ATOM     45  C   UNL     1      94.419 130.219  75.319  0.00  0.00    +0.201 C 
ATOM     46  C   UNL     1      93.304 129.173  75.056  0.00  0.00    +0.179 C 
ATOM     47  C   UNL     1      92.018 129.811  74.502  0.00  0.00    +0.178 C 
ATOM     48  C   UNL     1      92.353 130.714  73.305  0.00  0.00    +0.190 C 
ATOM     49  O   UNL     1      93.301 131.707  73.748  0.00  0.00    -0.339 OA
BRANCH  45  50
ATOM     50  O   UNL     1      95.634 129.548  75.685  0.00  0.00    -0.384 OA
ATOM     51  H   UNL     1      95.568 129.245  76.608  0.00  0.00    +0.210 HD
ENDBRANCH  45  50
BRANCH  46  52
ATOM     52  O   UNL     1      93.008 128.427  76.243  0.00  0.00    -0.386 OA
ATOM     53  H   UNL     1      92.063 128.179  76.198  0.00  0.00    +0.210 HD
ENDBRANCH  46  52
BRANCH  47  54
ATOM     54  O   UNL     1      91.388 130.547  75.564  0.00  0.00    -0.386 OA
ATOM     55  H   UNL     1      90.686 131.108  75.180  0.00  0.00    +0.210 HD
ENDBRANCH  47  54
BRANCH  48  56
ATOM     56  C   UNL     1      91.115 131.403  72.711  0.00  0.00    +0.266 C 
BRANCH  56  57
ATOM     57  O   UNL     1      90.735 132.576  73.471  0.00  0.00    -0.459 OA
BRANCH  57  58
ATOM     58  C   UNL     1      90.027 133.512  72.790  0.00  0.00    +0.332 C 
ATOM     59  O   UNL     1      88.809 133.601  72.751  0.00  0.00    -0.246 OA
BRANCH  58  60
ATOM     60  C   UNL     1      90.973 134.413  72.096  0.00  0.00    +0.091 C 
ATOM     61  C   UNL     1      90.839 135.740  72.235  0.00  0.00    +0.007 C 
BRANCH  61  62
ATOM     62  C   UNL     1      91.711 136.717  71.602  0.00  0.00    +0.000 C 
ATOM     63  C   UNL     1      91.524 138.045  71.700  0.00  0.00    -0.000 C 
BRANCH  63  64
ATOM     64  C   UNL     1      92.401 139.000  71.051  0.00  0.00    -0.002 C 
ATOM     65  C   UNL     1      92.582 139.093  69.719  0.00  0.00    +0.004 C 
BRANCH  65  66
ATOM     66  C   UNL     1      93.543 140.044  69.026  0.00  0.00    +0.137 C 
BRANCH  66  67
ATOM     67  O   UNL     1      93.766 139.660  67.668  0.00  0.00    -0.388 OA
ATOM     68  H   UNL     1      94.058 140.462  67.199  0.00  0.00    +0.210 HD
ENDBRANCH  66  67
BRANCH  66  69
ATOM     69  C   UNL     1      94.908 140.137  69.721  0.00  0.00    +0.032 C 
ATOM     70  C   UNL     1      96.014 139.494  68.888  0.00  0.00    +0.007 C 
ENDBRANCH  66  69
ENDBRANCH  65  66
ENDBRANCH  63  64
ENDBRANCH  61  62
ENDBRANCH  58  60
ENDBRANCH  57  58
ENDBRANCH  56  57
ENDBRANCH  48  56
ENDBRANCH  43  44
ENDBRANCH   2  43
BRANCH   3  71
ATOM     71  C   UNL     1      98.017 132.573  75.494  0.00  0.00    +0.190 C 
BRANCH  71  72
ATOM     72  O   UNL     1      97.831 131.211  75.896  0.00  0.00    -0.392 OA
ATOM     73  H   UNL     1      97.074 130.881  75.372  0.00  0.00    +0.210 HD
ENDBRANCH  71  72
ENDBRANCH   3  71
TORSDOF 32
ENDMDL
MODEL 4
REMARK VINA RESULT:    -4.928      7.764     14.393
REMARK INTER + INTRA:         -19.953
REMARK INTER:                 -14.873
REMARK INTRA:                  -5.080
REMARK UNBOUND:                -7.103
REMARK  Name = 
REMARK  36 active torsions:
REMARK  status: ('A' for Active; 'I' for Inactive)
REMARK    1  A    between atoms: C_1  and  C_2
REMARK    2  A    between atoms: C_2  and  C_3
REMARK    3  A    between atoms: C_3  and  C_4
REMARK    4  A    between atoms: C_3  and  C_5
REMARK    5  A    between atoms: C_5  and  C_6
REMARK    6  A    between atoms: C_6  and  C_7
REMARK    7  A    between atoms: C_8  and  C_9
REMARK    8  A    between atoms: C_10  and  C_11
REMARK    9  A    between atoms: C_10  and  C_12
REMARK   10  A    between atoms: C_12  and  C_13
REMARK   11  A    between atoms: C_12  and  O_64
REMARK   12  A    between atoms: C_13  and  C_14
REMARK   13  A    between atoms: C_15  and  C_16
REMARK   14  A    between atoms: C_17  and  C_18
REMARK   15  A    between atoms: C_18  and  O_20
REMARK   16  A    between atoms: O_20  and  C_21
REMARK   17  A    between atoms: C_22  and  O_40
REMARK   18  A    between atoms: C_23  and  C_38
REMARK   19  A    between atoms: C_26  and  O_27
REMARK   20  A    between atoms: C_33  and  O_37
REMARK   21  A    between atoms: C_35  and  O_36
REMARK   22  A    between atoms: C_38  and  O_39
REMARK   23  A    between atoms: O_40  and  C_41
REMARK   24  A    between atoms: C_42  and  O_63
REMARK   25  A    between atoms: C_43  and  O_62
REMARK   26  A    between atoms: C_44  and  O_61
REMARK   27  A    between atoms: C_45  and  C_47
REMARK   28  A    between atoms: C_47  and  O_48
REMARK   29  A    between atoms: O_48  and  C_49
REMARK   30  A    between atoms: C_49  and  C_51
REMARK   31  A    between atoms: C_52  and  C_53
REMARK   32  A    between atoms: C_54  and  C_55
REMARK   33  A    between atoms: C_56  and  C_57
REMARK   34  A    between atoms: C_57  and  C_58
REMARK   35  A    between atoms: C_57  and  O_60
REMARK   36  A    between atoms: C_58  and  C_59
REMARK                            x       y       z     vdW  Elec       q    Type
REMARK                         _______ _______ _______ _____ _____    ______ ____
ROOT
ATOM      1  C   UNL     1      99.400 138.546  62.514  0.00  0.00    +0.242 C 
ATOM      2  C   UNL     1     100.750 138.908  63.202  0.00  0.00    +0.196 C 
ATOM      3  C   UNL     1     101.654 139.384  62.024  0.00  0.00    +0.180 C 
ATOM      4  O   UNL     1     101.908 138.302  61.091  0.00  0.00    -0.334 OA
ATOM      5  C   UNL     1     100.719 137.730  60.522  0.00  0.00    +0.231 C 
ATOM      6  C   UNL     1      99.679 137.320  61.613  0.00  0.00    +0.222 C 
ATOM      7  C   UNL     1     101.065 136.612  59.579  0.00  0.00    +0.061 A 
ATOM      8  C   UNL     1     100.640 136.933  58.295  0.00  0.00    -0.007 A 
ATOM      9  C   UNL     1     100.029 138.276  58.297  0.00  0.00    +0.199 C 
ATOM     10  O   UNL     1     100.075 138.724  59.665  0.00  0.00    -0.338 OA
ATOM     11  C   UNL     1     100.771 136.053  57.224  0.00  0.00    +0.052 A 
ATOM     12  C   UNL     1     101.360 134.820  57.470  0.00  0.00    +0.121 A 
ATOM     13  C   UNL     1     101.806 134.479  58.748  0.00  0.00    +0.091 A 
ATOM     14  C   UNL     1     101.652 135.379  59.806  0.00  0.00    +0.129 A 
ENDROOT
BRANCH  12  15
ATOM     15  O   UNL     1     101.510 133.895  56.479  0.00  0.00    -0.507 OA
ATOM     16  H   UNL     1     100.839 134.059  55.799  0.00  0.00    +0.292 HD
ENDBRANCH  12  15
BRANCH   6  17
ATOM     17  O   UNL     1      98.435 136.856  61.050  0.00  0.00    -0.382 OA
ATOM     18  H   UNL     1      98.355 137.277  60.184  0.00  0.00    +0.210 HD
ENDBRANCH   6  17
BRANCH  14  19
ATOM     19  O   UNL     1     102.055 135.047  61.060  0.00  0.00    -0.506 OA
ATOM     20  H   UNL     1     102.417 134.147  61.019  0.00  0.00    +0.292 HD
ENDBRANCH  14  19
BRANCH   1  21
ATOM     21  O   UNL     1      98.273 138.257  63.397  0.00  0.00    -0.453 OA
BRANCH  21  22
ATOM     22  C   UNL     1      97.282 139.211  63.395  0.00  0.00    +0.332 C 
ATOM     23  O   UNL     1      97.226 140.180  64.137  0.00  0.00    -0.246 OA
BRANCH  22  25
ATOM     24  C   UNL     1      96.111 139.640  61.296  0.00  0.00    +0.007 C 
ATOM     25  C   UNL     1      96.233 138.882  62.401  0.00  0.00    +0.091 C 
BRANCH  24  27
ATOM     26  C   UNL     1      94.078 138.593  60.391  0.00  0.00    -0.024 C 
ATOM     27  C   UNL     1      95.123 139.431  60.252  0.00  0.00    -0.004 C 
BRANCH  26  28
ATOM     28  C   UNL     1      93.077 138.265  59.292  0.00  0.00    +0.063 C 
BRANCH  28  29
ATOM     29  C   UNL     1      93.455 137.057  58.389  0.00  0.00    +0.144 C 
BRANCH  29  31
ATOM     30  C   UNL     1      95.673 136.532  57.352  0.00  0.00    +0.001 C 
ATOM     31  C   UNL     1      94.595 137.355  57.406  0.00  0.00    -0.044 C 
ATOM     32  C   UNL     1      94.407 138.567  56.527  0.00  0.00    +0.042 C 
BRANCH  30  34
ATOM     33  C   UNL     1      97.141 135.839  55.491  0.00  0.00    -0.027 C 
ATOM     34  C   UNL     1      96.835 136.676  56.497  0.00  0.00    -0.004 C 
BRANCH  33  35
ATOM     35  C   UNL     1      98.381 136.011  54.660  0.00  0.00    +0.027 C 
BRANCH  35  36
ATOM     36  C   UNL     1      98.821 134.714  53.974  0.00  0.00    +0.007 C 
BRANCH  36  37
ATOM     37  C   UNL     1     100.122 134.879  53.152  0.00  0.00    -0.014 C 
ATOM     38  C   UNL     1     101.011 133.631  53.238  0.00  0.00    +0.007 C 
BRANCH  37  40
ATOM     39  C   UNL     1     102.387 135.975  53.653  0.00  0.00    +0.004 C 
ATOM     40  C   UNL     1     100.873 136.138  53.630  0.00  0.00    -0.000 C 
ENDBRANCH  37  40
ENDBRANCH  36  37
ENDBRANCH  35  36
ENDBRANCH  33  35
ENDBRANCH  30  34
ENDBRANCH  29  31
BRANCH  29  41
ATOM     41  O   UNL     1      92.333 136.608  57.633  0.00  0.00    -0.387 OA
ATOM     42  H   UNL     1      91.864 137.393  57.308  0.00  0.00    +0.210 HD
ENDBRANCH  29  41
ENDBRANCH  28  29
ENDBRANCH  26  28
ENDBRANCH  24  27
ENDBRANCH  22  25
ENDBRANCH  21  22
ENDBRANCH   1  21
BRANCH   2  43
ATOM     43  O   UNL     1     100.710 139.914  64.221  0.00  0.00    -0.339 OA
BRANCH  43  44
ATOM     44  C   UNL     1     100.987 139.511  65.560  0.00  0.00    +0.282 C 
ATOM     45  C   UNL     1      99.803 138.957  66.403  0.00  0.00    +0.201 C 
ATOM     46  C   UNL     1     100.336 138.623  67.821  0.00  0.00    +0.179 C 
ATOM     47  C   UNL     1     101.614 137.767  67.783  0.00  0.00    +0.178 C 
ATOM     48  C   UNL     1     102.645 138.404  66.838  0.00  0.00    +0.190 C 
ATOM     49  O   UNL     1     102.038 138.526  65.535  0.00  0.00    -0.339 OA
BRANCH  45  50
ATOM     50  O   UNL     1      98.708 139.878  66.503  0.00  0.00    -0.384 OA
ATOM     51  H   UNL     1      97.869 139.387  66.448  0.00  0.00    +0.210 HD
ENDBRANCH  45  50
BRANCH  46  52
ATOM     52  O   UNL     1      99.333 137.969  68.607  0.00  0.00    -0.386 OA
ATOM     53  H   UNL     1      99.037 138.610  69.286  0.00  0.00    +0.210 HD
ENDBRANCH  46  52
BRANCH  47  54
ATOM     54  O   UNL     1     101.254 136.441  67.362  0.00  0.00    -0.386 OA
ATOM     55  H   UNL     1     101.433 136.359  66.405  0.00  0.00    +0.210 HD
ENDBRANCH  47  54
BRANCH  48  56
ATOM     56  C   UNL     1     103.943 137.589  66.733  0.00  0.00    +0.266 C 
BRANCH  56  57
ATOM     57  O   UNL     1     103.742 136.203  67.102  0.00  0.00    -0.459 OA
BRANCH  57  58
ATOM     58  C   UNL     1     104.641 135.692  67.979  0.00  0.00    +0.332 C 
ATOM     59  O   UNL     1     105.837 135.941  68.005  0.00  0.00    -0.246 OA
BRANCH  58  60
ATOM     60  C   UNL     1     103.938 134.777  68.903  0.00  0.00    +0.091 C 
ATOM     61  C   UNL     1     104.617 134.214  69.914  0.00  0.00    +0.007 C 
BRANCH  61  62
ATOM     62  C   UNL     1     104.027 133.303  70.883  0.00  0.00    +0.000 C 
ATOM     63  C   UNL     1     102.700 133.128  71.016  0.00  0.00    -0.000 C 
BRANCH  63  64
ATOM     64  C   UNL     1     102.134 132.222  71.998  0.00  0.00    -0.002 C 
ATOM     65  C   UNL     1     101.291 131.212  71.710  0.00  0.00    +0.004 C 
BRANCH  65  66
ATOM     66  C   UNL     1     100.639 130.293  72.730  0.00  0.00    +0.137 C 
BRANCH  66  67
ATOM     67  O   UNL     1     100.387 128.998  72.179  0.00  0.00    -0.388 OA
ATOM     68  H   UNL     1      99.586 129.083  71.633  0.00  0.00    +0.210 HD
ENDBRANCH  66  67
BRANCH  66  69
ATOM     69  C   UNL     1      99.313 130.840  73.275  0.00  0.00    +0.032 C 
ATOM     70  C   UNL     1      98.189 129.810  73.174  0.00  0.00    +0.007 C 
ENDBRANCH  66  69
ENDBRANCH  65  66
ENDBRANCH  63  64
ENDBRANCH  61  62
ENDBRANCH  58  60
ENDBRANCH  57  58
ENDBRANCH  56  57
ENDBRANCH  48  56
ENDBRANCH  43  44
ENDBRANCH   2  43
BRANCH   3  71
ATOM     71  C   UNL     1     102.999 139.964  62.483  0.00  0.00    +0.190 C 
BRANCH  71  72
ATOM     72  O   UNL     1     103.630 139.055  63.394  0.00  0.00    -0.392 OA
ATOM     73  H   UNL     1     103.970 139.607  64.126  0.00  0.00    +0.210 HD
ENDBRANCH  71  72
ENDBRANCH   3  71
TORSDOF 32
ENDMDL
MODEL 5
REMARK VINA RESULT:    -4.909      3.401      9.371
REMARK INTER + INTRA:         -19.902
REMARK INTER:                 -11.518
REMARK INTRA:                  -8.385
REMARK UNBOUND:                -7.103
REMARK  Name = 
REMARK  36 active torsions:
REMARK  status: ('A' for Active; 'I' for Inactive)
REMARK    1  A    between atoms: C_1  and  C_2
REMARK    2  A    between atoms: C_2  and  C_3
REMARK    3  A    between atoms: C_3  and  C_4
REMARK    4  A    between atoms: C_3  and  C_5
REMARK    5  A    between atoms: C_5  and  C_6
REMARK    6  A    between atoms: C_6  and  C_7
REMARK    7  A    between atoms: C_8  and  C_9
REMARK    8  A    between atoms: C_10  and  C_11
REMARK    9  A    between atoms: C_10  and  C_12
REMARK   10  A    between atoms: C_12  and  C_13
REMARK   11  A    between atoms: C_12  and  O_64
REMARK   12  A    between atoms: C_13  and  C_14
REMARK   13  A    between atoms: C_15  and  C_16
REMARK   14  A    between atoms: C_17  and  C_18
REMARK   15  A    between atoms: C_18  and  O_20
REMARK   16  A    between atoms: O_20  and  C_21
REMARK   17  A    between atoms: C_22  and  O_40
REMARK   18  A    between atoms: C_23  and  C_38
REMARK   19  A    between atoms: C_26  and  O_27
REMARK   20  A    between atoms: C_33  and  O_37
REMARK   21  A    between atoms: C_35  and  O_36
REMARK   22  A    between atoms: C_38  and  O_39
REMARK   23  A    between atoms: O_40  and  C_41
REMARK   24  A    between atoms: C_42  and  O_63
REMARK   25  A    between atoms: C_43  and  O_62
REMARK   26  A    between atoms: C_44  and  O_61
REMARK   27  A    between atoms: C_45  and  C_47
REMARK   28  A    between atoms: C_47  and  O_48
REMARK   29  A    between atoms: O_48  and  C_49
REMARK   30  A    between atoms: C_49  and  C_51
REMARK   31  A    between atoms: C_52  and  C_53
REMARK   32  A    between atoms: C_54  and  C_55
REMARK   33  A    between atoms: C_56  and  C_57
REMARK   34  A    between atoms: C_57  and  C_58
REMARK   35  A    between atoms: C_57  and  O_60
REMARK   36  A    between atoms: C_58  and  C_59
REMARK                            x       y       z     vdW  Elec       q    Type
REMARK                         _______ _______ _______ _____ _____    ______ ____
ROOT
ATOM      1  C   UNL     1      98.776 133.303  72.859  0.00  0.00    +0.242 C 
ATOM      2  C   UNL     1      98.231 131.972  73.458  0.00  0.00    +0.196 C 
ATOM      3  C   UNL     1      99.401 131.459  74.353  0.00  0.00    +0.180 C 
ATOM      4  O   UNL     1     100.569 131.138  73.553  0.00  0.00    -0.334 OA
ATOM      5  C   UNL     1     101.067 132.243  72.779  0.00  0.00    +0.231 C 
ATOM      6  C   UNL     1      99.947 132.918  71.925  0.00  0.00    +0.222 C 
ATOM      7  C   UNL     1     102.265 131.828  71.971  0.00  0.00    +0.061 A 
ATOM      8  C   UNL     1     103.375 132.562  72.372  0.00  0.00    -0.007 A 
ATOM      9  C   UNL     1     103.000 133.467  73.476  0.00  0.00    +0.199 C 
ATOM     10  O   UNL     1     101.591 133.262  73.685  0.00  0.00    -0.338 OA
ATOM     11  C   UNL     1     104.616 132.435  71.752  0.00  0.00    +0.052 A 
ATOM     12  C   UNL     1     104.725 131.529  70.705  0.00  0.00    +0.121 A 
ATOM     13  C   UNL     1     103.627 130.772  70.293  0.00  0.00    +0.091 A 
ATOM     14  C   UNL     1     102.391 130.929  70.928  0.00  0.00    +0.129 A 
ENDROOT
BRANCH  12  15
ATOM     15  O   UNL     1     105.900 131.358  70.035  0.00  0.00    -0.507 OA
ATOM     16  H   UNL     1     105.808 131.737  69.147  0.00  0.00    +0.292 HD
ENDBRANCH  12  15
BRANCH   6  17
ATOM     17  O   UNL     1     100.408 134.098  71.237  0.00  0.00    -0.382 OA
ATOM     18  H   UNL     1      99.974 134.098  70.374  0.00  0.00    +0.210 HD
ENDBRANCH   6  17
BRANCH  14  19
ATOM     19  O   UNL     1     101.308 130.220  70.516  0.00  0.00    -0.506 OA
ATOM     20  H   UNL     1     100.558 130.834  70.475  0.00  0.00    +0.292 HD
ENDBRANCH  14  19
BRANCH   1  21
ATOM     21  O   UNL     1      97.820 134.131  72.129  0.00  0.00    -0.453 OA
BRANCH  21  22
ATOM     22  C   UNL     1      97.458 135.292  72.771  0.00  0.00    +0.332 C 
ATOM     23  O   UNL     1      96.756 135.365  73.768  0.00  0.00    -0.246 OA
BRANCH  22  25
ATOM     24  C   UNL     1      97.763 137.705  72.559  0.00  0.00    +0.007 C 
ATOM     25  C   UNL     1      97.986 136.478  72.055  0.00  0.00    +0.091 C 
BRANCH  24  27
ATOM     26  C   UNL     1      99.015 139.822  72.592  0.00  0.00    -0.024 C 
ATOM     27  C   UNL     1      98.216 138.946  71.954  0.00  0.00    -0.004 C 
BRANCH  26  28
ATOM     28  C   UNL     1      99.432 141.177  72.039  0.00  0.00    +0.063 C 
BRANCH  28  29
ATOM     29  C   UNL     1     100.928 141.296  71.633  0.00  0.00    +0.144 C 
BRANCH  29  31
ATOM     30  C   UNL     1     100.950 139.764  69.652  0.00  0.00    +0.001 C 
ATOM     31  C   UNL     1     101.459 140.073  70.871  0.00  0.00    -0.044 C 
ATOM     32  C   UNL     1     102.563 139.302  71.552  0.00  0.00    +0.042 C 
BRANCH  30  34
ATOM     33  C   UNL     1     100.798 137.412  68.915  0.00  0.00    -0.027 C 
ATOM     34  C   UNL     1     101.326 138.644  68.812  0.00  0.00    -0.004 C 
BRANCH  33  35
ATOM     35  C   UNL     1     101.253 136.274  68.044  0.00  0.00    +0.027 C 
BRANCH  35  36
ATOM     36  C   UNL     1     102.710 136.418  67.594  0.00  0.00    +0.007 C 
BRANCH  36  37
ATOM     37  C   UNL     1     103.660 135.427  68.307  0.00  0.00    -0.014 C 
ATOM     38  C   UNL     1     102.908 134.197  68.834  0.00  0.00    +0.007 C 
BRANCH  37  40
ATOM     39  C   UNL     1     103.785 135.948  70.816  0.00  0.00    +0.004 C 
ATOM     40  C   UNL     1     104.407 136.158  69.441  0.00  0.00    -0.000 C 
ENDBRANCH  37  40
ENDBRANCH  36  37
ENDBRANCH  35  36
ENDBRANCH  33  35
ENDBRANCH  30  34
ENDBRANCH  29  31
BRANCH  29  41
ATOM     41  O   UNL     1     101.758 141.492  72.775  0.00  0.00    -0.387 OA
ATOM     42  H   UNL     1     102.318 140.705  72.872  0.00  0.00    +0.210 HD
ENDBRANCH  29  41
ENDBRANCH  28  29
ENDBRANCH  26  28
ENDBRANCH  24  27
ENDBRANCH  22  25
ENDBRANCH  21  22
ENDBRANCH   1  21
BRANCH   2  43
ATOM     43  O   UNL     1      97.028 132.053  74.232  0.00  0.00    -0.339 OA
BRANCH  43  44
ATOM     44  C   UNL     1      95.851 131.462  73.686  0.00  0.00    +0.282 C 
ATOM     45  C   UNL     1      94.922 130.680  74.658  0.00  0.00    +0.201 C 
ATOM     46  C   UNL     1      93.739 130.104  73.836  0.00  0.00    +0.179 C 
ATOM     47  C   UNL     1      93.068 131.166  72.947  0.00  0.00    +0.178 C 
ATOM     48  C   UNL     1      94.131 131.907  72.120  0.00  0.00    +0.190 C 
ATOM     49  O   UNL     1      95.080 132.491  73.036  0.00  0.00    -0.339 OA
BRANCH  45  50
ATOM     50  O   UNL     1      95.598 129.616  75.344  0.00  0.00    -0.384 OA
ATOM     51  H   UNL     1      95.122 129.412  76.168  0.00  0.00    +0.210 HD
ENDBRANCH  45  50
BRANCH  46  52
ATOM     52  O   UNL     1      92.765 129.496  74.692  0.00  0.00    -0.386 OA
ATOM     53  H   UNL     1      93.136 128.640  74.988  0.00  0.00    +0.210 HD
ENDBRANCH  46  52
BRANCH  47  54
ATOM     54  O   UNL     1      92.334 132.063  73.796  0.00  0.00    -0.386 OA
ATOM     55  H   UNL     1      91.561 131.587  74.158  0.00  0.00    +0.210 HD
ENDBRANCH  47  54
BRANCH  48  56
ATOM     56  C   UNL     1      93.533 133.000  71.222  0.00  0.00    +0.266 C 
BRANCH  56  57
ATOM     57  O   UNL     1      94.516 134.003  70.866  0.00  0.00    -0.459 OA
BRANCH  57  58
ATOM     58  C   UNL     1      94.172 135.285  71.139  0.00  0.00    +0.332 C 
ATOM     59  O   UNL     1      93.389 135.648  72.005  0.00  0.00    -0.246 OA
BRANCH  58  60
ATOM     60  C   UNL     1      94.899 136.181  70.215  0.00  0.00    +0.091 C 
ATOM     61  C   UNL     1      94.753 137.509  70.335  0.00  0.00    +0.007 C 
BRANCH  61  62
ATOM     62  C   UNL     1      95.421 138.482  69.485  0.00  0.00    +0.000 C 
ATOM     63  C   UNL     1      96.625 138.267  68.925  0.00  0.00    -0.000 C 
BRANCH  63  64
ATOM     64  C   UNL     1      97.278 139.256  68.089  0.00  0.00    -0.002 C 
ATOM     65  C   UNL     1      98.015 138.971  66.998  0.00  0.00    +0.004 C 
BRANCH  65  66
ATOM     66  C   UNL     1      98.757 139.988  66.147  0.00  0.00    +0.137 C 
BRANCH  66  67
ATOM     67  O   UNL     1      97.881 141.020  65.687  0.00  0.00    -0.388 OA
ATOM     68  H   UNL     1      97.051 140.581  65.430  0.00  0.00    +0.210 HD
ENDBRANCH  66  67
BRANCH  66  69
ATOM     69  C   UNL     1      99.439 139.366  64.920  0.00  0.00    +0.032 C 
ATOM     70  C   UNL     1     100.877 138.948  65.222  0.00  0.00    +0.007 C 
ENDBRANCH  66  69
ENDBRANCH  65  66
ENDBRANCH  63  64
ENDBRANCH  61  62
ENDBRANCH  58  60
ENDBRANCH  57  58
ENDBRANCH  56  57
ENDBRANCH  48  56
ENDBRANCH  43  44
ENDBRANCH   2  43
BRANCH   3  71
ATOM     71  C   UNL     1      99.031 130.230  75.196  0.00  0.00    +0.190 C 
BRANCH  71  72
ATOM     72  O   UNL     1      98.394 129.251  74.366  0.00  0.00    -0.392 OA
ATOM     73  H   UNL     1      97.888 129.757  73.700  0.00  0.00    +0.210 HD
ENDBRANCH  71  72
ENDBRANCH   3  71
TORSDOF 32
ENDMDL
MODEL 6
REMARK VINA RESULT:    -4.892      8.077     15.333
REMARK INTER + INTRA:         -19.860
REMARK INTER:                 -13.590
REMARK INTRA:                  -6.270
REMARK UNBOUND:                -7.103
REMARK  Name = 
REMARK  36 active torsions:
REMARK  status: ('A' for Active; 'I' for Inactive)
REMARK    1  A    between atoms: C_1  and  C_2
REMARK    2  A    between atoms: C_2  and  C_3
REMARK    3  A    between atoms: C_3  and  C_4
REMARK    4  A    between atoms: C_3  and  C_5
REMARK    5  A    between atoms: C_5  and  C_6
REMARK    6  A    between atoms: C_6  and  C_7
REMARK    7  A    between atoms: C_8  and  C_9
REMARK    8  A    between atoms: C_10  and  C_11
REMARK    9  A    between atoms: C_10  and  C_12
REMARK   10  A    between atoms: C_12  and  C_13
REMARK   11  A    between atoms: C_12  and  O_64
REMARK   12  A    between atoms: C_13  and  C_14
REMARK   13  A    between atoms: C_15  and  C_16
REMARK   14  A    between atoms: C_17  and  C_18
REMARK   15  A    between atoms: C_18  and  O_20
REMARK   16  A    between atoms: O_20  and  C_21
REMARK   17  A    between atoms: C_22  and  O_40
REMARK   18  A    between atoms: C_23  and  C_38
REMARK   19  A    between atoms: C_26  and  O_27
REMARK   20  A    between atoms: C_33  and  O_37
REMARK   21  A    between atoms: C_35  and  O_36
REMARK   22  A    between atoms: C_38  and  O_39
REMARK   23  A    between atoms: O_40  and  C_41
REMARK   24  A    between atoms: C_42  and  O_63
REMARK   25  A    between atoms: C_43  and  O_62
REMARK   26  A    between atoms: C_44  and  O_61
REMARK   27  A    between atoms: C_45  and  C_47
REMARK   28  A    between atoms: C_47  and  O_48
REMARK   29  A    between atoms: O_48  and  C_49
REMARK   30  A    between atoms: C_49  and  C_51
REMARK   31  A    between atoms: C_52  and  C_53
REMARK   32  A    between atoms: C_54  and  C_55
REMARK   33  A    between atoms: C_56  and  C_57
REMARK   34  A    between atoms: C_57  and  C_58
REMARK   35  A    between atoms: C_57  and  O_60
REMARK   36  A    between atoms: C_58  and  C_59
REMARK                            x       y       z     vdW  Elec       q    Type
REMARK                         _______ _______ _______ _____ _____    ______ ____
ROOT
ATOM      1  C   UNL     1      85.424 131.699  74.799  0.00  0.00    +0.242 C 
ATOM      2  C   UNL     1      85.317 130.769  76.044  0.00  0.00    +0.196 C 
ATOM      3  C   UNL     1      86.614 131.080  76.854  0.00  0.00    +0.180 C 
ATOM      4  O   UNL     1      87.799 130.691  76.112  0.00  0.00    -0.334 OA
ATOM      5  C   UNL     1      87.922 131.334  74.832  0.00  0.00    +0.231 C 
ATOM      6  C   UNL     1      86.628 131.190  73.971  0.00  0.00    +0.222 C 
ATOM      7  C   UNL     1      89.164 130.871  74.123  0.00  0.00    +0.061 A 
ATOM      8  C   UNL     1      90.019 131.949  73.925  0.00  0.00    -0.007 A 
ATOM      9  C   UNL     1      89.426 133.166  74.511  0.00  0.00    +0.199 C 
ATOM     10  O   UNL     1      88.148 132.763  75.036  0.00  0.00    -0.338 OA
ATOM     11  C   UNL     1      91.222 131.830  73.233  0.00  0.00    +0.052 A 
ATOM     12  C   UNL     1      91.563 130.576  72.742  0.00  0.00    +0.121 A 
ATOM     13  C   UNL     1      90.727 129.476  72.939  0.00  0.00    +0.091 A 
ATOM     14  C   UNL     1      89.520 129.629  73.629  0.00  0.00    +0.129 A 
ENDROOT
BRANCH  12  15
ATOM     15  O   UNL     1      92.715 130.379  72.039  0.00  0.00    -0.507 OA
ATOM     16  H   UNL     1      93.301 131.136  72.188  0.00  0.00    +0.292 HD
ENDBRANCH  12  15
BRANCH   6  17
ATOM     17  O   UNL     1      86.696 131.931  72.736  0.00  0.00    -0.382 OA
ATOM     18  H   UNL     1      85.854 131.788  72.286  0.00  0.00    +0.210 HD
ENDBRANCH   6  17
BRANCH  14  19
ATOM     19  O   UNL     1      88.685 128.572  73.801  0.00  0.00    -0.506 OA
ATOM     20  H   UNL     1      89.176 127.771  73.555  0.00  0.00    +0.292 HD
ENDBRANCH  14  19
BRANCH   1  21
ATOM     21  O   UNL     1      84.244 131.785  73.943  0.00  0.00    -0.453 OA
BRANCH  21  22
ATOM     22  C   UNL     1      83.834 133.066  73.656  0.00  0.00    +0.332 C 
ATOM     23  O   UNL     1      83.743 133.982  74.459  0.00  0.00    -0.246 OA
BRANCH  22  25
ATOM     24  C   UNL     1      83.218 132.077  71.511  0.00  0.00    +0.007 C 
ATOM     25  C   UNL     1      83.448 133.190  72.230  0.00  0.00    +0.091 C 
BRANCH  24  27
ATOM     26  C   UNL     1      82.948 133.139  69.308  0.00  0.00    -0.024 C 
ATOM     27  C   UNL     1      82.843 132.059  70.107  0.00  0.00    -0.004 C 
BRANCH  26  28
ATOM     28  C   UNL     1      82.475 133.197  67.863  0.00  0.00    +0.063 C 
BRANCH  28  29
ATOM     29  C   UNL     1      81.870 131.877  67.310  0.00  0.00    +0.144 C 
BRANCH  29  31
ATOM     30  C   UNL     1      83.306 129.838  67.081  0.00  0.00    +0.001 C 
ATOM     31  C   UNL     1      82.878 131.009  66.544  0.00  0.00    -0.044 C 
ATOM     32  C   UNL     1      83.308 131.533  65.196  0.00  0.00    +0.042 C 
BRANCH  30  34
ATOM     33  C   UNL     1      84.014 127.609  66.287  0.00  0.00    -0.027 C 
ATOM     34  C   UNL     1      84.260 128.913  66.501  0.00  0.00    -0.004 C 
BRANCH  33  35
ATOM     35  C   UNL     1      85.054 126.685  65.719  0.00  0.00    +0.027 C 
BRANCH  35  36
ATOM     36  C   UNL     1      86.141 126.320  66.735  0.00  0.00    +0.007 C 
BRANCH  36  37
ATOM     37  C   UNL     1      86.331 124.792  66.890  0.00  0.00    -0.014 C 
ATOM     38  C   UNL     1      85.478 124.008  65.883  0.00  0.00    +0.007 C 
BRANCH  37  40
ATOM     39  C   UNL     1      84.752 125.033  68.897  0.00  0.00    +0.004 C 
ATOM     40  C   UNL     1      86.010 124.380  68.340  0.00  0.00    -0.000 C 
ENDBRANCH  37  40
ENDBRANCH  36  37
ENDBRANCH  35  36
ENDBRANCH  33  35
ENDBRANCH  30  34
ENDBRANCH  29  31
BRANCH  29  41
ATOM     41  O   UNL     1      80.771 132.139  66.439  0.00  0.00    -0.387 OA
ATOM     42  H   UNL     1      80.862 131.558  65.667  0.00  0.00    +0.210 HD
ENDBRANCH  29  41
ENDBRANCH  28  29
ENDBRANCH  26  28
ENDBRANCH  24  27
ENDBRANCH  22  25
ENDBRANCH  21  22
ENDBRANCH   1  21
BRANCH   2  43
ATOM     43  O   UNL     1      84.169 130.937  76.883  0.00  0.00    -0.339 OA
BRANCH  43  44
ATOM     44  C   UNL     1      82.917 130.460  76.394  0.00  0.00    +0.282 C 
ATOM     45  C   UNL     1      82.394 129.107  76.957  0.00  0.00    +0.201 C 
ATOM     46  C   UNL     1      81.050 128.782  76.256  0.00  0.00    +0.179 C 
ATOM     47  C   UNL     1      80.068 129.966  76.287  0.00  0.00    +0.178 C 
ATOM     48  C   UNL     1      80.766 131.240  75.786  0.00  0.00    +0.190 C 
ATOM     49  O   UNL     1      81.919 131.473  76.621  0.00  0.00    -0.339 OA
BRANCH  45  50
ATOM     50  O   UNL     1      83.317 128.026  76.762  0.00  0.00    -0.384 OA
ATOM     51  H   UNL     1      82.821 127.193  76.673  0.00  0.00    +0.210 HD
ENDBRANCH  45  50
BRANCH  46  52
ATOM     52  O   UNL     1      80.437 127.622  76.833  0.00  0.00    -0.386 OA
ATOM     53  H   UNL     1      80.968 126.848  76.556  0.00  0.00    +0.210 HD
ENDBRANCH  46  52
BRANCH  47  54
ATOM     54  O   UNL     1      79.587 130.116  77.633  0.00  0.00    -0.386 OA
ATOM     55  H   UNL     1      78.777 130.662  77.614  0.00  0.00    +0.210 HD
ENDBRANCH  47  54
BRANCH  48  56
ATOM     56  C   UNL     1      79.848 132.472  75.809  0.00  0.00    +0.266 C 
BRANCH  56  57
ATOM     57  O   UNL     1      79.075 132.592  74.591  0.00  0.00    -0.459 OA
BRANCH  57  58
ATOM     58  C   UNL     1      79.729 133.130  73.532  0.00  0.00    +0.332 C 
ATOM     59  O   UNL     1      80.374 134.168  73.540  0.00  0.00    -0.246 OA
BRANCH  58  60
ATOM     60  C   UNL     1      79.533 132.255  72.356  0.00  0.00    +0.091 C 
ATOM     61  C   UNL     1      79.366 132.807  71.145  0.00  0.00    +0.007 C 
BRANCH  61  62
ATOM     62  C   UNL     1      79.169 132.045  69.923  0.00  0.00    +0.000 C 
ATOM     63  C   UNL     1      79.249 130.703  69.871  0.00  0.00    -0.000 C 
BRANCH  63  64
ATOM     64  C   UNL     1      79.060 129.964  68.637  0.00  0.00    -0.002 C 
ATOM     65  C   UNL     1      79.772 128.878  68.277  0.00  0.00    +0.004 C 
BRANCH  65  66
ATOM     66  C   UNL     1      79.631 128.129  66.963  0.00  0.00    +0.137 C 
BRANCH  66  67
ATOM     67  O   UNL     1      80.754 127.277  66.726  0.00  0.00    -0.388 OA
ATOM     68  H   UNL     1      81.187 127.611  65.920  0.00  0.00    +0.210 HD
ENDBRANCH  66  67
BRANCH  66  69
ATOM     69  C   UNL     1      79.479 129.059  65.751  0.00  0.00    +0.032 C 
ATOM     70  C   UNL     1      80.624 128.884  64.755  0.00  0.00    +0.007 C 
ENDBRANCH  66  69
ENDBRANCH  65  66
ENDBRANCH  63  64
ENDBRANCH  61  62
ENDBRANCH  58  60
ENDBRANCH  57  58
ENDBRANCH  56  57
ENDBRANCH  48  56
ENDBRANCH  43  44
ENDBRANCH   2  43
BRANCH   3  71
ATOM     71  C   UNL     1      86.650 130.399  78.230  0.00  0.00    +0.190 C 
BRANCH  71  72
ATOM     72  O   UNL     1      85.925 129.164  78.177  0.00  0.00    -0.392 OA
ATOM     73  H   UNL     1      86.505 128.499  78.597  0.00  0.00    +0.210 HD
ENDBRANCH  71  72
ENDBRANCH   3  71
TORSDOF 32
ENDMDL
MODEL 7
REMARK VINA RESULT:    -4.878      1.504      2.666
REMARK INTER + INTRA:         -19.822
REMARK INTER:                 -13.270
REMARK INTRA:                  -6.552
REMARK UNBOUND:                -7.103
REMARK  Name = 
REMARK  36 active torsions:
REMARK  status: ('A' for Active; 'I' for Inactive)
REMARK    1  A    between atoms: C_1  and  C_2
REMARK    2  A    between atoms: C_2  and  C_3
REMARK    3  A    between atoms: C_3  and  C_4
REMARK    4  A    between atoms: C_3  and  C_5
REMARK    5  A    between atoms: C_5  and  C_6
REMARK    6  A    between atoms: C_6  and  C_7
REMARK    7  A    between atoms: C_8  and  C_9
REMARK    8  A    between atoms: C_10  and  C_11
REMARK    9  A    between atoms: C_10  and  C_12
REMARK   10  A    between atoms: C_12  and  C_13
REMARK   11  A    between atoms: C_12  and  O_64
REMARK   12  A    between atoms: C_13  and  C_14
REMARK   13  A    between atoms: C_15  and  C_16
REMARK   14  A    between atoms: C_17  and  C_18
REMARK   15  A    between atoms: C_18  and  O_20
REMARK   16  A    between atoms: O_20  and  C_21
REMARK   17  A    between atoms: C_22  and  O_40
REMARK   18  A    between atoms: C_23  and  C_38
REMARK   19  A    between atoms: C_26  and  O_27
REMARK   20  A    between atoms: C_33  and  O_37
REMARK   21  A    between atoms: C_35  and  O_36
REMARK   22  A    between atoms: C_38  and  O_39
REMARK   23  A    between atoms: O_40  and  C_41
REMARK   24  A    between atoms: C_42  and  O_63
REMARK   25  A    between atoms: C_43  and  O_62
REMARK   26  A    between atoms: C_44  and  O_61
REMARK   27  A    between atoms: C_45  and  C_47
REMARK   28  A    between atoms: C_47  and  O_48
REMARK   29  A    between atoms: O_48  and  C_49
REMARK   30  A    between atoms: C_49  and  C_51
REMARK   31  A    between atoms: C_52  and  C_53
REMARK   32  A    between atoms: C_54  and  C_55
REMARK   33  A    between atoms: C_56  and  C_57
REMARK   34  A    between atoms: C_57  and  C_58
REMARK   35  A    between atoms: C_57  and  O_60
REMARK   36  A    between atoms: C_58  and  C_59
REMARK                            x       y       z     vdW  Elec       q    Type
REMARK                         _______ _______ _______ _____ _____    ______ ____
ROOT
ATOM      1  C   UNL     1     101.150 133.866  71.969  0.00  0.00    +0.242 C 
ATOM      2  C   UNL     1     101.111 132.378  71.510  0.00  0.00    +0.196 C 
ATOM      3  C   UNL     1     102.520 132.142  70.885  0.00  0.00    +0.180 C 
ATOM      4  O   UNL     1     102.711 132.964  69.705  0.00  0.00    -0.334 OA
ATOM      5  C   UNL     1     102.575 134.375  69.947  0.00  0.00    +0.231 C 
ATOM      6  C   UNL     1     101.241 134.721  70.683  0.00  0.00    +0.222 C 
ATOM      7  C   UNL     1     102.774 135.154  68.678  0.00  0.00    +0.061 A 
ATOM      8  C   UNL     1     103.881 135.985  68.808  0.00  0.00    -0.007 A 
ATOM      9  C   UNL     1     104.496 135.787  70.135  0.00  0.00    +0.199 C 
ATOM     10  O   UNL     1     103.670 134.819  70.807  0.00  0.00    -0.338 OA
ATOM     11  C   UNL     1     104.268 136.874  67.809  0.00  0.00    +0.052 A 
ATOM     12  C   UNL     1     103.512 136.905  66.644  0.00  0.00    +0.121 A 
ATOM     13  C   UNL     1     102.404 136.071  66.484  0.00  0.00    +0.091 A 
ATOM     14  C   UNL     1     102.033 135.196  67.510  0.00  0.00    +0.129 A 
ENDROOT
BRANCH  12  15
ATOM     15  O   UNL     1     103.815 137.759  65.624  0.00  0.00    -0.507 OA
ATOM     16  H   UNL     1     103.889 138.656  65.984  0.00  0.00    +0.292 HD
ENDBRANCH  12  15
BRANCH   6  17
ATOM     17  O   UNL     1     101.148 136.116  71.038  0.00  0.00    -0.382 OA
ATOM     18  H   UNL     1     100.397 136.471  70.546  0.00  0.00    +0.210 HD
ENDBRANCH   6  17
BRANCH  14  19
ATOM     19  O   UNL     1     100.940 134.401  67.378  0.00  0.00    -0.506 OA
ATOM     20  H   UNL     1     100.785 133.977  68.237  0.00  0.00    +0.292 HD
ENDBRANCH  14  19
BRANCH   1  21
ATOM     21  O   UNL     1     100.031 134.329  72.785  0.00  0.00    -0.453 OA
BRANCH  21  22
ATOM     22  C   UNL     1     100.329 134.519  74.114  0.00  0.00    +0.332 C 
ATOM     23  O   UNL     1     101.331 135.065  74.549  0.00  0.00    -0.246 OA
BRANCH  22  25
ATOM     24  C   UNL     1      99.643 133.394  76.170  0.00  0.00    +0.007 C 
ATOM     25  C   UNL     1      99.289 133.912  74.980  0.00  0.00    +0.091 C 
BRANCH  24  27
ATOM     26  C   UNL     1      97.448 132.479  76.797  0.00  0.00    -0.024 C 
ATOM     27  C   UNL     1      98.727 132.765  77.106  0.00  0.00    -0.004 C 
BRANCH  26  28
ATOM     28  C   UNL     1      96.425 131.916  77.774  0.00  0.00    +0.063 C 
BRANCH  28  29
ATOM     29  C   UNL     1      95.010 132.554  77.693  0.00  0.00    +0.144 C 
BRANCH  29  31
ATOM     30  C   UNL     1      93.658 132.258  75.606  0.00  0.00    +0.001 C 
ATOM     31  C   UNL     1      94.027 131.766  76.816  0.00  0.00    -0.044 C 
ATOM     32  C   UNL     1      93.554 130.448  77.377  0.00  0.00    +0.042 C 
BRANCH  30  34
ATOM     33  C   UNL     1      93.050 130.635  73.847  0.00  0.00    -0.027 C 
ATOM     34  C   UNL     1      92.735 131.653  74.666  0.00  0.00    -0.004 C 
BRANCH  33  35
ATOM     35  C   UNL     1      92.066 130.070  72.862  0.00  0.00    +0.027 C 
BRANCH  35  36
ATOM     36  C   UNL     1      91.212 128.944  73.456  0.00  0.00    +0.007 C 
BRANCH  36  37
ATOM     37  C   UNL     1      89.979 129.469  74.229  0.00  0.00    -0.014 C 
ATOM     38  C   UNL     1      88.984 128.344  74.544  0.00  0.00    +0.007 C 
BRANCH  37  40
ATOM     39  C   UNL     1      88.834 131.764  74.283  0.00  0.00    +0.004 C 
ATOM     40  C   UNL     1      89.312 130.601  73.423  0.00  0.00    -0.000 C 
ENDBRANCH  37  40
ENDBRANCH  36  37
ENDBRANCH  35  36
ENDBRANCH  33  35
ENDBRANCH  30  34
ENDBRANCH  29  31
BRANCH  29  41
ATOM     41  O   UNL     1      95.073 133.886  77.188  0.00  0.00    -0.387 OA
ATOM     42  H   UNL     1      95.793 133.921  76.538  0.00  0.00    +0.210 HD
ENDBRANCH  29  41
ENDBRANCH  28  29
ENDBRANCH  26  28
ENDBRANCH  24  27
ENDBRANCH  22  25
ENDBRANCH  21  22
ENDBRANCH   1  21
BRANCH   2  43
ATOM     43  O   UNL     1     100.857 131.393  72.519  0.00  0.00    -0.339 OA
BRANCH  43  44
ATOM     44  C   UNL     1      99.550 130.825  72.575  0.00  0.00    +0.282 C 
ATOM     45  C   UNL     1      98.961 130.513  73.980  0.00  0.00    +0.201 C 
ATOM     46  C   UNL     1      97.561 129.874  73.784  0.00  0.00    +0.179 C 
ATOM     47  C   UNL     1      96.671 130.687  72.829  0.00  0.00    +0.178 C 
ATOM     48  C   UNL     1      97.432 130.987  71.528  0.00  0.00    +0.190 C 
ATOM     49  O   UNL     1      98.642 131.695  71.873  0.00  0.00    -0.339 OA
BRANCH  45  50
ATOM     50  O   UNL     1      99.791 129.634  74.753  0.00  0.00    -0.384 OA
ATOM     51  H   UNL     1     100.726 129.835  74.573  0.00  0.00    +0.210 HD
ENDBRANCH  45  50
BRANCH  46  52
ATOM     52  O   UNL     1      96.897 129.696  75.041  0.00  0.00    -0.386 OA
ATOM     53  H   UNL     1      96.790 130.584  75.438  0.00  0.00    +0.210 HD
ENDBRANCH  46  52
BRANCH  47  54
ATOM     54  O   UNL     1      96.273 131.892  73.502  0.00  0.00    -0.386 OA
ATOM     55  H   UNL     1      96.098 132.581  72.831  0.00  0.00    +0.210 HD
ENDBRANCH  47  54
BRANCH  48  56
ATOM     56  C   UNL     1      96.609 131.817  70.532  0.00  0.00    +0.266 C 
BRANCH  56  57
ATOM     57  O   UNL     1      95.241 131.989  70.973  0.00  0.00    -0.459 OA
BRANCH  57  58
ATOM     58  C   UNL     1      94.533 132.952  70.332  0.00  0.00    +0.332 C 
ATOM     59  O   UNL     1      94.689 133.302  69.171  0.00  0.00    -0.246 OA
BRANCH  58  60
ATOM     60  C   UNL     1      93.538 133.516  71.269  0.00  0.00    +0.091 C 
ATOM     61  C   UNL     1      92.250 133.162  71.152  0.00  0.00    +0.007 C 
BRANCH  61  62
ATOM     62  C   UNL     1      91.189 133.652  72.018  0.00  0.00    +0.000 C 
ATOM     63  C   UNL     1      91.370 134.631  72.922  0.00  0.00    -0.000 C 
BRANCH  63  64
ATOM     64  C   UNL     1      90.300 135.095  73.784  0.00  0.00    -0.002 C 
ATOM     65  C   UNL     1      89.175 135.698  73.352  0.00  0.00    +0.004 C 
BRANCH  65  66
ATOM     66  C   UNL     1      88.073 136.247  74.242  0.00  0.00    +0.137 C 
BRANCH  66  67
ATOM     67  O   UNL     1      88.549 137.319  75.059  0.00  0.00    -0.388 OA
ATOM     68  H   UNL     1      87.962 137.354  75.835  0.00  0.00    +0.210 HD
ENDBRANCH  66  67
BRANCH  66  69
ATOM     69  C   UNL     1      87.458 135.186  75.166  0.00  0.00    +0.032 C 
ATOM     70  C   UNL     1      86.233 134.526  74.536  0.00  0.00    +0.007 C 
ENDBRANCH  66  69
ENDBRANCH  65  66
ENDBRANCH  63  64
ENDBRANCH  61  62
ENDBRANCH  58  60
ENDBRANCH  57  58
ENDBRANCH  56  57
ENDBRANCH  48  56
ENDBRANCH  43  44
ENDBRANCH   2  43
BRANCH   3  71
ATOM     71  C   UNL     1     102.784 130.676  70.511  0.00  0.00    +0.190 C 
BRANCH  71  72
ATOM     72  O   UNL     1     101.655 130.148  69.804  0.00  0.00    -0.392 OA
ATOM     73  H   UNL     1     102.017 129.748  68.989  0.00  0.00    +0.210 HD
ENDBRANCH  71  72
ENDBRANCH   3  71
TORSDOF 32
ENDMDL
MODEL 8
REMARK VINA RESULT:    -4.840      3.373      8.886
REMARK INTER + INTRA:         -19.725
REMARK INTER:                 -13.068
REMARK INTRA:                  -6.657
REMARK UNBOUND:                -7.103
REMARK  Name = 
REMARK  36 active torsions:
REMARK  status: ('A' for Active; 'I' for Inactive)
REMARK    1  A    between atoms: C_1  and  C_2
REMARK    2  A    between atoms: C_2  and  C_3
REMARK    3  A    between atoms: C_3  and  C_4
REMARK    4  A    between atoms: C_3  and  C_5
REMARK    5  A    between atoms: C_5  and  C_6
REMARK    6  A    between atoms: C_6  and  C_7
REMARK    7  A    between atoms: C_8  and  C_9
REMARK    8  A    between atoms: C_10  and  C_11
REMARK    9  A    between atoms: C_10  and  C_12
REMARK   10  A    between atoms: C_12  and  C_13
REMARK   11  A    between atoms: C_12  and  O_64
REMARK   12  A    between atoms: C_13  and  C_14
REMARK   13  A    between atoms: C_15  and  C_16
REMARK   14  A    between atoms: C_17  and  C_18
REMARK   15  A    between atoms: C_18  and  O_20
REMARK   16  A    between atoms: O_20  and  C_21
REMARK   17  A    between atoms: C_22  and  O_40
REMARK   18  A    between atoms: C_23  and  C_38
REMARK   19  A    between atoms: C_26  and  O_27
REMARK   20  A    between atoms: C_33  and  O_37
REMARK   21  A    between atoms: C_35  and  O_36
REMARK   22  A    between atoms: C_38  and  O_39
REMARK   23  A    between atoms: O_40  and  C_41
REMARK   24  A    between atoms: C_42  and  O_63
REMARK   25  A    between atoms: C_43  and  O_62
REMARK   26  A    between atoms: C_44  and  O_61
REMARK   27  A    between atoms: C_45  and  C_47
REMARK   28  A    between atoms: C_47  and  O_48
REMARK   29  A    between atoms: O_48  and  C_49
REMARK   30  A    between atoms: C_49  and  C_51
REMARK   31  A    between atoms: C_52  and  C_53
REMARK   32  A    between atoms: C_54  and  C_55
REMARK   33  A    between atoms: C_56  and  C_57
REMARK   34  A    between atoms: C_57  and  C_58
REMARK   35  A    between atoms: C_57  and  O_60
REMARK   36  A    between atoms: C_58  and  C_59
REMARK                            x       y       z     vdW  Elec       q    Type
REMARK                         _______ _______ _______ _____ _____    ______ ____
ROOT
ATOM      1  C   UNL     1      96.568 132.058  72.377  0.00  0.00    +0.242 C 
ATOM      2  C   UNL     1      96.677 131.667  73.881  0.00  0.00    +0.196 C 
ATOM      3  C   UNL     1      97.868 132.527  74.406  0.00  0.00    +0.180 C 
ATOM      4  O   UNL     1      99.110 132.148  73.759  0.00  0.00    -0.334 OA
ATOM      5  C   UNL     1      99.084 132.271  72.327  0.00  0.00    +0.231 C 
ATOM      6  C   UNL     1      97.856 131.542  71.694  0.00  0.00    +0.222 C 
ATOM      7  C   UNL     1     100.399 131.850  71.733  0.00  0.00    +0.061 A 
ATOM      8  C   UNL     1     100.984 132.928  71.079  0.00  0.00    -0.007 A 
ATOM      9  C   UNL     1     100.128 134.121  71.227  0.00  0.00    +0.199 C 
ATOM     10  O   UNL     1      98.976 133.684  71.971  0.00  0.00    -0.338 OA
ATOM     11  C   UNL     1     102.182 132.815  70.379  0.00  0.00    +0.052 A 
ATOM     12  C   UNL     1     102.801 131.572  70.355  0.00  0.00    +0.121 A 
ATOM     13  C   UNL     1     102.240 130.477  71.014  0.00  0.00    +0.091 A 
ATOM     14  C   UNL     1     101.030 130.619  71.701  0.00  0.00    +0.129 A 
ENDROOT
BRANCH  12  15
ATOM     15  O   UNL     1     103.968 131.373  69.678  0.00  0.00    -0.507 OA
ATOM     16  H   UNL     1     104.708 131.512  70.288  0.00  0.00    +0.292 HD
ENDBRANCH  12  15
BRANCH   6  17
ATOM     17  O   UNL     1      97.754 131.758  70.272  0.00  0.00    -0.382 OA
ATOM     18  H   UNL     1      98.657 131.860  69.946  0.00  0.00    +0.210 HD
ENDBRANCH   6  17
BRANCH  14  19
ATOM     19  O   UNL     1     100.459 129.554  72.321  0.00  0.00    -0.506 OA
ATOM     20  H   UNL     1     101.036 129.306  73.062  0.00  0.00    +0.292 HD
ENDBRANCH  14  19
BRANCH   1  21
ATOM     21  O   UNL     1      95.400 131.562  71.655  0.00  0.00    -0.453 OA
BRANCH  21  22
ATOM     22  C   UNL     1      94.550 132.541  71.196  0.00  0.00    +0.332 C 
ATOM     23  O   UNL     1      93.530 132.353  70.550  0.00  0.00    -0.246 OA
BRANCH  22  25
ATOM     24  C   UNL     1      94.806 134.920  70.711  0.00  0.00    +0.007 C 
ATOM     25  C   UNL     1      95.064 133.889  71.536  0.00  0.00    +0.091 C 
BRANCH  24  27
ATOM     26  C   UNL     1      95.198 137.231  69.966  0.00  0.00    -0.024 C 
ATOM     27  C   UNL     1      95.257 136.284  70.922  0.00  0.00    -0.004 C 
BRANCH  26  28
ATOM     28  C   UNL     1      95.750 138.642  70.108  0.00  0.00    +0.063 C 
BRANCH  28  29
ATOM     29  C   UNL     1      96.442 139.214  68.838  0.00  0.00    +0.144 C 
BRANCH  29  31
ATOM     30  C   UNL     1      98.557 138.953  67.522  0.00  0.00    +0.001 C 
ATOM     31  C   UNL     1      97.923 138.829  68.716  0.00  0.00    -0.044 C 
ATOM     32  C   UNL     1      98.586 138.352  69.985  0.00  0.00    +0.042 C 
BRANCH  30  34
ATOM     33  C   UNL     1     100.487 138.674  66.007  0.00  0.00    -0.027 C 
ATOM     34  C   UNL     1      99.938 138.622  67.233  0.00  0.00    -0.004 C 
BRANCH  33  35
ATOM     35  C   UNL     1     101.915 138.281  65.756  0.00  0.00    +0.027 C 
BRANCH  35  36
ATOM     36  C   UNL     1     102.755 138.244  67.037  0.00  0.00    +0.007 C 
BRANCH  36  37
ATOM     37  C   UNL     1     103.194 136.812  67.426  0.00  0.00    -0.014 C 
ATOM     38  C   UNL     1     104.707 136.618  67.265  0.00  0.00    +0.007 C 
BRANCH  37  40
ATOM     39  C   UNL     1     101.529 134.859  67.422  0.00  0.00    +0.004 C 
ATOM     40  C   UNL     1     102.403 135.787  66.588  0.00  0.00    -0.000 C 
ENDBRANCH  37  40
ENDBRANCH  36  37
ENDBRANCH  35  36
ENDBRANCH  33  35
ENDBRANCH  30  34
ENDBRANCH  29  31
BRANCH  29  41
ATOM     41  O   UNL     1      96.358 140.637  68.802  0.00  0.00    -0.387 OA
ATOM     42  H   UNL     1      95.793 140.880  68.051  0.00  0.00    +0.210 HD
ENDBRANCH  29  41
ENDBRANCH  28  29
ENDBRANCH  26  28
ENDBRANCH  24  27
ENDBRANCH  22  25
ENDBRANCH  21  22
ENDBRANCH   1  21
BRANCH   2  43
ATOM     43  O   UNL     1      95.520 131.891  74.696  0.00  0.00    -0.339 OA
BRANCH  43  44
ATOM     44  C   UNL     1      94.711 130.763  75.019  0.00  0.00    +0.282 C 
ATOM     45  C   UNL     1      94.387 130.517  76.521  0.00  0.00    +0.201 C 
ATOM     46  C   UNL     1      93.534 129.226  76.624  0.00  0.00    +0.179 C 
ATOM     47  C   UNL     1      92.339 129.230  75.655  0.00  0.00    +0.178 C 
ATOM     48  C   UNL     1      92.816 129.579  74.236  0.00  0.00    +0.190 C 
ATOM     49  O   UNL     1      93.473 130.862  74.289  0.00  0.00    -0.339 OA
BRANCH  45  50
ATOM     50  O   UNL     1      95.563 130.386  77.332  0.00  0.00    -0.384 OA
ATOM     51  H   UNL     1      95.422 130.845  78.179  0.00  0.00    +0.210 HD
ENDBRANCH  45  50
BRANCH  46  52
ATOM     52  O   UNL     1      93.075 129.019  77.965  0.00  0.00    -0.386 OA
ATOM     53  H   UNL     1      93.186 129.867  78.442  0.00  0.00    +0.210 HD
ENDBRANCH  46  52
BRANCH  47  54
ATOM     54  O   UNL     1      91.372 130.177  76.138  0.00  0.00    -0.386 OA
ATOM     55  H   UNL     1      91.727 130.601  76.944  0.00  0.00    +0.210 HD
ENDBRANCH  47  54
BRANCH  48  56
ATOM     56  C   UNL     1      91.669 129.623  73.214  0.00  0.00    +0.266 C 
BRANCH  56  57
ATOM     57  O   UNL     1      91.522 130.937  72.624  0.00  0.00    -0.459 OA
BRANCH  57  58
ATOM     58  C   UNL     1      90.579 131.732  73.188  0.00  0.00    +0.332 C 
ATOM     59  O   UNL     1      89.700 131.367  73.955  0.00  0.00    -0.246 OA
BRANCH  58  60
ATOM     60  C   UNL     1      90.784 133.120  72.722  0.00  0.00    +0.091 C 
ATOM     61  C   UNL     1      91.672 133.902  73.354  0.00  0.00    +0.007 C 
BRANCH  61  62
ATOM     62  C   UNL     1      91.956 135.278  72.979  0.00  0.00    +0.000 C 
ATOM     63  C   UNL     1      91.338 135.908  71.964  0.00  0.00    -0.000 C 
BRANCH  63  64
ATOM     64  C   UNL     1      91.646 137.278  71.601  0.00  0.00    -0.002 C 
ATOM     65  C   UNL     1      92.376 138.124  72.354  0.00  0.00    +0.004 C 
BRANCH  65  66
ATOM     66  C   UNL     1      92.656 139.580  72.021  0.00  0.00    +0.137 C 
BRANCH  66  67
ATOM     67  O   UNL     1      91.908 140.460  72.862  0.00  0.00    -0.388 OA
ATOM     68  H   UNL     1      91.846 141.308  72.388  0.00  0.00    +0.210 HD
ENDBRANCH  66  67
BRANCH  66  69
ATOM     69  C   UNL     1      92.337 139.938  70.562  0.00  0.00    +0.032 C 
ATOM     70  C   UNL     1      93.044 141.219  70.125  0.00  0.00    +0.007 C 
ENDBRANCH  66  69
ENDBRANCH  65  66
ENDBRANCH  63  64
ENDBRANCH  61  62
ENDBRANCH  58  60
ENDBRANCH  57  58
ENDBRANCH  56  57
ENDBRANCH  48  56
ENDBRANCH  43  44
ENDBRANCH   2  43
BRANCH   3  71
ATOM     71  C   UNL     1      98.059 132.441  75.927  0.00  0.00    +0.190 C 
BRANCH  71  72
ATOM     72  O   UNL     1      98.040 131.068  76.338  0.00  0.00    -0.392 OA
ATOM     73  H   UNL     1      98.628 130.597  75.715  0.00  0.00    +0.210 HD
ENDBRANCH  71  72
ENDBRANCH   3  71
TORSDOF 32
ENDMDL
MODEL 9
REMARK VINA RESULT:    -4.833      2.250      5.793
REMARK INTER + INTRA:         -19.706
REMARK INTER:                 -12.749
REMARK INTRA:                  -6.958
REMARK UNBOUND:                -7.103
REMARK  Name = 
REMARK  36 active torsions:
REMARK  status: ('A' for Active; 'I' for Inactive)
REMARK    1  A    between atoms: C_1  and  C_2
REMARK    2  A    between atoms: C_2  and  C_3
REMARK    3  A    between atoms: C_3  and  C_4
REMARK    4  A    between atoms: C_3  and  C_5
REMARK    5  A    between atoms: C_5  and  C_6
REMARK    6  A    between atoms: C_6  and  C_7
REMARK    7  A    between atoms: C_8  and  C_9
REMARK    8  A    between atoms: C_10  and  C_11
REMARK    9  A    between atoms: C_10  and  C_12
REMARK   10  A    between atoms: C_12  and  C_13
REMARK   11  A    between atoms: C_12  and  O_64
REMARK   12  A    between atoms: C_13  and  C_14
REMARK   13  A    between atoms: C_15  and  C_16
REMARK   14  A    between atoms: C_17  and  C_18
REMARK   15  A    between atoms: C_18  and  O_20
REMARK   16  A    between atoms: O_20  and  C_21
REMARK   17  A    between atoms: C_22  and  O_40
REMARK   18  A    between atoms: C_23  and  C_38
REMARK   19  A    between atoms: C_26  and  O_27
REMARK   20  A    between atoms: C_33  and  O_37
REMARK   21  A    between atoms: C_35  and  O_36
REMARK   22  A    between atoms: C_38  and  O_39
REMARK   23  A    between atoms: O_40  and  C_41
REMARK   24  A    between atoms: C_42  and  O_63
REMARK   25  A    between atoms: C_43  and  O_62
REMARK   26  A    between atoms: C_44  and  O_61
REMARK   27  A    between atoms: C_45  and  C_47
REMARK   28  A    between atoms: C_47  and  O_48
REMARK   29  A    between atoms: O_48  and  C_49
REMARK   30  A    between atoms: C_49  and  C_51
REMARK   31  A    between atoms: C_52  and  C_53
REMARK   32  A    between atoms: C_54  and  C_55
REMARK   33  A    between atoms: C_56  and  C_57
REMARK   34  A    between atoms: C_57  and  C_58
REMARK   35  A    between atoms: C_57  and  O_60
REMARK   36  A    between atoms: C_58  and  C_59
REMARK                            x       y       z     vdW  Elec       q    Type
REMARK                         _______ _______ _______ _____ _____    ______ ____
ROOT
ATOM      1  C   UNL     1      97.760 131.396  72.896  0.00  0.00    +0.242 C 
ATOM      2  C   UNL     1      98.364 130.730  74.169  0.00  0.00    +0.196 C 
ATOM      3  C   UNL     1      99.339 131.811  74.729  0.00  0.00    +0.180 C 
ATOM      4  O   UNL     1     100.427 132.063  73.803  0.00  0.00    -0.334 OA
ATOM      5  C   UNL     1      99.997 132.499  72.502  0.00  0.00    +0.231 C 
ATOM      6  C   UNL     1      98.922 131.548  71.886  0.00  0.00    +0.222 C 
ATOM      7  C   UNL     1     101.178 132.725  71.600  0.00  0.00    +0.061 A 
ATOM      8  C   UNL     1     101.228 134.062  71.222  0.00  0.00    -0.007 A 
ATOM      9  C   UNL     1     100.125 134.801  71.866  0.00  0.00    +0.199 C 
ATOM     10  O   UNL     1      99.387 133.821  72.619  0.00  0.00    -0.338 OA
ATOM     11  C   UNL     1     102.183 134.551  70.334  0.00  0.00    +0.052 A 
ATOM     12  C   UNL     1     103.115 133.653  69.830  0.00  0.00    +0.121 A 
ATOM     13  C   UNL     1     103.093 132.308  70.204  0.00  0.00    +0.091 A 
ATOM     14  C   UNL     1     102.116 131.845  71.090  0.00  0.00    +0.129 A 
ENDROOT
BRANCH  12  15
ATOM     15  O   UNL     1     104.072 134.047  68.942  0.00  0.00    -0.507 OA
ATOM     16  H   UNL     1     103.776 133.821  68.047  0.00  0.00    +0.292 HD
ENDBRANCH  12  15
BRANCH   6  17
ATOM     17  O   UNL     1      98.397 132.039  70.636  0.00  0.00    -0.382 OA
ATOM     18  H   UNL     1      99.129 132.017  70.007  0.00  0.00    +0.210 HD
ENDBRANCH   6  17
BRANCH  14  19
ATOM     19  O   UNL     1     102.066 130.533  71.439  0.00  0.00    -0.506 OA
ATOM     20  H   UNL     1     102.981 130.227  71.547  0.00  0.00    +0.292 HD
ENDBRANCH  14  19
BRANCH   1  21
ATOM     21  O   UNL     1      96.647 130.698  72.259  0.00  0.00    -0.453 OA
BRANCH  21  22
ATOM     22  C   UNL     1      95.539 131.479  72.023  0.00  0.00    +0.332 C 
ATOM     23  O   UNL     1      95.552 132.666  71.736  0.00  0.00    -0.246 OA
BRANCH  22  25
ATOM     24  C   UNL     1      93.105 131.329  72.152  0.00  0.00    +0.007 C 
ATOM     25  C   UNL     1      94.293 130.701  72.223  0.00  0.00    +0.091 C 
BRANCH  24  27
ATOM     26  C   UNL     1      91.677 129.469  72.896  0.00  0.00    -0.024 C 
ATOM     27  C   UNL     1      91.815 130.687  72.337  0.00  0.00    -0.004 C 
BRANCH  26  28
ATOM     28  C   UNL     1      90.361 128.715  73.017  0.00  0.00    +0.063 C 
BRANCH  28  29
ATOM     29  C   UNL     1      89.625 128.881  74.376  0.00  0.00    +0.144 C 
BRANCH  29  31
ATOM     30  C   UNL     1      87.963 130.530  73.485  0.00  0.00    +0.001 C 
ATOM     31  C   UNL     1      88.814 130.180  74.484  0.00  0.00    -0.044 C 
ATOM     32  C   UNL     1      89.014 130.979  75.748  0.00  0.00    +0.042 C 
BRANCH  30  34
ATOM     33  C   UNL     1      87.609 132.949  73.142  0.00  0.00    -0.027 C 
ATOM     34  C   UNL     1      87.140 131.721  73.422  0.00  0.00    -0.004 C 
BRANCH  33  35
ATOM     35  C   UNL     1      86.717 134.159  73.129  0.00  0.00    +0.027 C 
BRANCH  35  36
ATOM     36  C   UNL     1      87.117 135.202  74.178  0.00  0.00    +0.007 C 
BRANCH  36  37
ATOM     37  C   UNL     1      88.077 134.637  75.252  0.00  0.00    -0.014 C 
ATOM     38  C   UNL     1      87.333 134.263  76.540  0.00  0.00    +0.007 C 
BRANCH  37  40
ATOM     39  C   UNL     1      88.851 137.078  75.092  0.00  0.00    +0.004 C 
ATOM     40  C   UNL     1      89.198 135.660  75.526  0.00  0.00    -0.000 C 
ENDBRANCH  37  40
ENDBRANCH  36  37
ENDBRANCH  35  36
ENDBRANCH  33  35
ENDBRANCH  30  34
ENDBRANCH  29  31
BRANCH  29  41
ATOM     41  O   UNL     1      90.543 128.850  75.467  0.00  0.00    -0.387 OA
ATOM     42  H   UNL     1      90.055 129.093  76.270  0.00  0.00    +0.210 HD
ENDBRANCH  29  41
ENDBRANCH  28  29
ENDBRANCH  26  28
ENDBRANCH  24  27
ENDBRANCH  22  25
ENDBRANCH  21  22
ENDBRANCH   1  21
BRANCH   2  43
ATOM     43  O   UNL     1      97.443 130.331  75.191  0.00  0.00    -0.339 OA
BRANCH  43  44
ATOM     44  C   UNL     1      96.154 130.938  75.194  0.00  0.00    +0.282 C 
ATOM     45  C   UNL     1      94.999 130.172  75.900  0.00  0.00    +0.201 C 
ATOM     46  C   UNL     1      93.700 131.004  75.741  0.00  0.00    +0.179 C 
ATOM     47  C   UNL     1      93.892 132.478  76.140  0.00  0.00    +0.178 C 
ATOM     48  C   UNL     1      95.124 133.058  75.427  0.00  0.00    +0.190 C 
ATOM     49  O   UNL     1      96.266 132.249  75.780  0.00  0.00    -0.339 OA
BRANCH  45  50
ATOM     50  O   UNL     1      94.797 128.853  75.371  0.00  0.00    -0.384 OA
ATOM     51  H   UNL     1      94.864 128.204  76.093  0.00  0.00    +0.210 HD
ENDBRANCH  45  50
BRANCH  46  52
ATOM     52  O   UNL     1      92.626 130.430  76.495  0.00  0.00    -0.386 OA
ATOM     53  H   UNL     1      92.052 131.167  76.786  0.00  0.00    +0.210 HD
ENDBRANCH  46  52
BRANCH  47  54
ATOM     54  O   UNL     1      94.026 132.543  77.569  0.00  0.00    -0.386 OA
ATOM     55  H   UNL     1      93.144 132.414  77.970  0.00  0.00    +0.210 HD
ENDBRANCH  47  54
BRANCH  48  56
ATOM     56  C   UNL     1      95.391 134.525  75.795  0.00  0.00    +0.266 C 
BRANCH  56  57
ATOM     57  O   UNL     1      94.668 135.438  74.933  0.00  0.00    -0.459 OA
BRANCH  57  58
ATOM     58  C   UNL     1      95.145 135.554  73.670  0.00  0.00    +0.332 C 
ATOM     59  O   UNL     1      96.324 135.557  73.346  0.00  0.00    -0.246 OA
BRANCH  58  60
ATOM     60  C   UNL     1      94.003 135.680  72.739  0.00  0.00    +0.091 C 
ATOM     61  C   UNL     1      92.926 134.899  72.910  0.00  0.00    +0.007 C 
BRANCH  61  62
ATOM     62  C   UNL     1      91.748 134.940  72.059  0.00  0.00    +0.000 C 
ATOM     63  C   UNL     1      90.741 135.814  72.236  0.00  0.00    -0.000 C 
BRANCH  63  64
ATOM     64  C   UNL     1      89.570 135.829  71.381  0.00  0.00    -0.002 C 
ATOM     65  C   UNL     1      89.239 134.849  70.517  0.00  0.00    +0.004 C 
BRANCH  65  66
ATOM     66  C   UNL     1      88.051 134.875  69.570  0.00  0.00    +0.137 C 
BRANCH  66  67
ATOM     67  O   UNL     1      88.473 134.996  68.210  0.00  0.00    -0.388 OA
ATOM     68  H   UNL     1      87.997 134.309  67.712  0.00  0.00    +0.210 HD
ENDBRANCH  66  67
BRANCH  66  69
ATOM     69  C   UNL     1      87.069 136.017  69.864  0.00  0.00    +0.032 C 
ATOM     70  C   UNL     1      86.062 136.205  68.731  0.00  0.00    +0.007 C 
ENDBRANCH  66  69
ENDBRANCH  65  66
ENDBRANCH  63  64
ENDBRANCH  61  62
ENDBRANCH  58  60
ENDBRANCH  57  58
ENDBRANCH  56  57
ENDBRANCH  48  56
ENDBRANCH  43  44
ENDBRANCH   2  43
BRANCH   3  71
ATOM     71  C   UNL     1      99.932 131.447  76.098  0.00  0.00    +0.190 C 
BRANCH  71  72
ATOM     72  O   UNL     1     100.474 130.122  76.050  0.00  0.00    -0.392 OA
ATOM     73  H   UNL     1      99.781 129.567  75.641  0.00  0.00    +0.210 HD
ENDBRANCH  71  72
ENDBRANCH   3  71
TORSDOF 32
ENDMDL
