MODEL 1
REMARK VINA RESULT:    -5.955      0.000      0.000
REMARK INTER + INTRA:         -12.652
REMARK INTER:                  -9.436
REMARK INTRA:                  -3.216
REMARK UNBOUND:                -3.216
REMARK  Name = 
REMARK  22 active torsions:
REMARK  status: ('A' for Active; 'I' for Inactive)
REMARK    1  A    between atoms: C_1  and  C_2
REMARK    2  A    between atoms: C_2  and  C_3
REMARK    3  A    between atoms: C_2  and  C_4
REMARK    4  A    between atoms: C_4  and  C_5
REMARK    5  A    between atoms: C_4  and  C_6
REMARK    6  A    between atoms: C_6  and  C_7
REMARK    7  A    between atoms: C_10  and  C_11
REMARK    8  A    between atoms: C_16  and  C_17
REMARK    9  A    between atoms: C_23  and  N_24
REMARK   10  A    between atoms: C_28  and  C_29
REMARK   11  A    between atoms: C_35  and  O_36
REMARK   12  A    between atoms: O_36  and  C_37
REMARK   13  A    between atoms: C_37  and  C_38
REMARK   14  A    between atoms: C_38  and  C_39
REMARK   15  A    between atoms: C_38  and  N_40
REMARK   16  A    between atoms: C_38  and  C_41
REMARK   17  A    between atoms: C_41  and  C_42
REMARK   18  A    between atoms: C_41  and  C_43
REMARK   19  A    between atoms: C_41  and  C_44
REMARK   20  A    between atoms: C_48  and  C_49
REMARK   21  A    between atoms: C_50  and  C_51
REMARK   22  A    between atoms: C_51  and  O_53
REMARK                            x       y       z     vdW  Elec       q    Type
REMARK                         _______ _______ _______ _____ _____    ______ ____
ROOT
ATOM      1  C   UNL     1      98.900 132.792  75.131  0.00  0.00    +0.000 C 
ATOM      2  C   UNL     1      99.270 134.268  75.480  0.00  0.00    +0.000 C 
ATOM      3  C   UNL     1      98.036 132.943  73.780  0.00  0.00    +0.000 C 
ATOM      4  C   UNL     1      96.557 132.384  73.677  0.00  0.00    +0.000 C 
ATOM      5  C   UNL     1      96.245 131.311  74.771  0.00  0.00    +0.000 C 
ATOM      6  C   UNL     1      97.094 130.129  74.261  0.00  0.00    +0.000 C 
ATOM      7  C   UNL     1      94.785 130.732  74.841  0.00  0.00    +0.000 C 
ATOM      8  C   UNL     1      94.585 129.189  74.801  0.00  0.00    +0.000 C 
ATOM      9  C   UNL     1      93.107 128.812  74.629  0.00  0.00    +0.000 C 
ATOM     10  C   UNL     1      92.176 130.037  74.695  0.00  0.00    +0.000 C 
ATOM     11  C   UNL     1      90.685 129.764  74.608  0.00  0.00    +0.000 C 
ATOM     12  C   UNL     1      90.369 128.709  73.524  0.00  0.00    +0.000 C 
ATOM     13  C   UNL     1      90.210 129.200  75.958  0.00  0.00    +0.000 C 
ATOM     14  O   UNL     1      90.392 130.159  76.987  0.00  0.00    +0.000 OA
ATOM     15  C   UNL     1      91.768 130.446  77.190  0.00  0.00    +0.000 C 
ATOM     16  C   UNL     1      92.455 130.985  75.901  0.00  0.00    +0.000 C 
ATOM     17  C   UNL     1      91.928 132.399  75.646  0.00  0.00    +0.000 C 
ATOM     18  C   UNL     1      90.584 132.430  74.940  0.00  0.00    +0.000 C 
ATOM     19  C   UNL     1      90.036 131.142  74.223  0.00  0.00    +0.000 C 
ATOM     20  C   UNL     1      93.943 131.088  76.057  0.00  0.00    +0.000 C 
ATOM     21  C   UNL     1      94.515 131.293  77.246  0.00  0.00    +0.000 C 
ATOM     22  C   UNL     1      95.980 131.271  77.330  0.00  0.00    +0.000 C 
ATOM     23  C   UNL     1      96.577 132.052  76.129  0.00  0.00    +0.000 C 
ATOM     24  C   UNL     1      95.953 133.504  76.182  0.00  0.00    +0.000 C 
ATOM     25  C   UNL     1      98.101 132.093  76.276  0.00  0.00    +0.000 C 
ENDROOT
BRANCH  18  26
ATOM     26  N   UNL     1      90.492 133.667  74.125  0.00  0.00    +0.000 N 
ATOM     27  N   UNL     1      89.596 134.603  74.549  0.00  0.00    +0.000 NA
ATOM     28  C   UNL     1      89.639 135.487  73.559  0.00  0.00    +0.000 A 
ATOM     29  N   UNL     1      90.538 135.228  72.562  0.00  0.00    +0.000 NA
ATOM     30  C   UNL     1      91.135 134.114  72.971  0.00  0.00    +0.000 A 
BRANCH  30  31
ATOM     31  C   UNL     1      92.285 133.556  72.232  0.00  0.00    +0.000 A 
ATOM     32  C   UNL     1      92.327 132.214  71.846  0.00  0.00    +0.000 A 
ATOM     33  C   UNL     1      93.434 131.733  71.138  0.00  0.00    +0.000 A 
ATOM     34  N   UNL     1      94.515 132.477  70.827  0.00  0.00    +0.000 NA
ATOM     35  C   UNL     1      94.438 133.767  71.153  0.00  0.00    +0.000 A 
ATOM     36  C   UNL     1      93.332 134.324  71.772  0.00  0.00    +0.000 A 
ENDBRANCH  30  31
ENDBRANCH  18  26
BRANCH   1  37
ATOM     37  C   UNL     1     100.316 132.001  74.883  0.00  0.00    +0.000 C 
ATOM     38  C   UNL     1     101.562 132.487  75.661  0.00  0.00    +0.000 C 
BRANCH  37  40
ATOM     39  C   UNL     1     102.074 132.541  72.999  0.00  0.00    +0.000 C 
ATOM     40  C   UNL     1     100.820 131.774  73.403  0.00  0.00    +0.000 C 
ATOM     41  C   UNL     1     100.842 130.313  72.896  0.00  0.00    +0.000 C 
ENDBRANCH  37  40
ENDBRANCH   1  37
BRANCH  25  42
ATOM     42  C   UNL     1      98.437 132.374  77.736  0.00  0.00    +0.000 C 
ATOM     43  O   UNL     1      98.179 133.415  78.326  0.00  0.00    +0.000 OA
BRANCH  42  44
ATOM     44  O   UNL     1      99.240 131.480  78.326  0.00  0.00    +0.000 OA
ATOM     45  H   UNL     1     100.091 131.611  77.856  0.00  0.00    +0.000 HD
ENDBRANCH  42  44
ENDBRANCH  25  42
BRANCH  19  46
ATOM     46  O   UNL     1      88.633 130.955  74.433  0.00  0.00    +0.000 OA
BRANCH  46  47
ATOM     47  C   UNL     1      87.827 131.411  73.359  0.00  0.00    +0.000 C 
BRANCH  47  48
ATOM     48  C   UNL     1      86.454 131.898  73.851  0.00  0.00    +0.000 C 
ATOM     49  C   UNL     1      86.717 132.386  75.294  0.00  0.00    +0.000 C 
BRANCH  48  50
ATOM     50  C   UNL     1      85.818 132.998  72.906  0.00  0.00    +0.000 C 
ATOM     51  C   UNL     1      85.330 134.204  73.735  0.00  0.00    +0.000 C 
ATOM     52  C   UNL     1      86.849 133.520  71.874  0.00  0.00    +0.000 C 
ATOM     53  C   UNL     1      84.604 132.482  72.097  0.00  0.00    +0.000 C 
ENDBRANCH  48  50
BRANCH  48  54
ATOM     54  N   UNL     1      85.606 130.694  73.962  0.00  0.00    +0.000 NA
ATOM     55  H   UNL     1      85.752 130.210  74.829  0.00  0.00    +0.000 HD
ATOM     56  H   UNL     1      84.616 130.990  73.942  0.00  0.00    +0.000 HD
ENDBRANCH  48  54
ENDBRANCH  47  48
ENDBRANCH  46  47
ENDBRANCH  19  46
TORSDOF 11
ENDMDL
MODEL 2
REMARK VINA RESULT:    -5.887      2.172      3.683
REMARK INTER + INTRA:         -12.544
REMARK INTER:                  -8.946
REMARK INTRA:                  -3.598
REMARK UNBOUND:                -3.216
REMARK  Name = 
REMARK  22 active torsions:
REMARK  status: ('A' for Active; 'I' for Inactive)
REMARK    1  A    between atoms: C_1  and  C_2
REMARK    2  A    between atoms: C_2  and  C_3
REMARK    3  A    between atoms: C_2  and  C_4
REMARK    4  A    between atoms: C_4  and  C_5
REMARK    5  A    between atoms: C_4  and  C_6
REMARK    6  A    between atoms: C_6  and  C_7
REMARK    7  A    between atoms: C_10  and  C_11
REMARK    8  A    between atoms: C_16  and  C_17
REMARK    9  A    between atoms: C_23  and  N_24
REMARK   10  A    between atoms: C_28  and  C_29
REMARK   11  A    between atoms: C_35  and  O_36
REMARK   12  A    between atoms: O_36  and  C_37
REMARK   13  A    between atoms: C_37  and  C_38
REMARK   14  A    between atoms: C_38  and  C_39
REMARK   15  A    between atoms: C_38  and  N_40
REMARK   16  A    between atoms: C_38  and  C_41
REMARK   17  A    between atoms: C_41  and  C_42
REMARK   18  A    between atoms: C_41  and  C_43
REMARK   19  A    between atoms: C_41  and  C_44
REMARK   20  A    between atoms: C_48  and  C_49
REMARK   21  A    between atoms: C_50  and  C_51
REMARK   22  A    between atoms: C_51  and  O_53
REMARK                            x       y       z     vdW  Elec       q    Type
REMARK                         _______ _______ _______ _____ _____    ______ ____
ROOT
ATOM      1  C   UNL     1     101.488 134.041  72.787  0.00  0.00    +0.000 C 
ATOM      2  C   UNL     1     101.819 135.559  72.937  0.00  0.00    +0.000 C 
ATOM      3  C   UNL     1     100.173 134.046  71.858  0.00  0.00    +0.000 C 
ATOM      4  C   UNL     1      98.822 133.366  72.331  0.00  0.00    +0.000 C 
ATOM      5  C   UNL     1      99.042 132.336  73.487  0.00  0.00    +0.000 C 
ATOM      6  C   UNL     1      99.749 131.197  72.723  0.00  0.00    +0.000 C 
ATOM      7  C   UNL     1      97.776 131.648  74.114  0.00  0.00    +0.000 C 
ATOM      8  C   UNL     1      97.723 130.094  74.188  0.00  0.00    +0.000 C 
ATOM      9  C   UNL     1      96.330 129.592  74.593  0.00  0.00    +0.000 C 
ATOM     10  C   UNL     1      95.379 130.742  74.977  0.00  0.00    +0.000 C 
ATOM     11  C   UNL     1      93.996 130.346  75.462  0.00  0.00    +0.000 C 
ATOM     12  C   UNL     1      93.401 129.210  74.602  0.00  0.00    +0.000 C 
ATOM     13  C   UNL     1      94.114 129.825  76.906  0.00  0.00    +0.000 C 
ATOM     14  O   UNL     1      94.574 130.852  77.768  0.00  0.00    +0.000 OA
ATOM     15  C   UNL     1      95.893 131.259  77.431  0.00  0.00    +0.000 C 
ATOM     16  C   UNL     1      95.996 131.776  75.966  0.00  0.00    +0.000 C 
ATOM     17  C   UNL     1      95.280 133.127  75.895  0.00  0.00    +0.000 C 
ATOM     18  C   UNL     1      93.774 133.011  75.746  0.00  0.00    +0.000 C 
ATOM     19  C   UNL     1      93.122 131.645  75.318  0.00  0.00    +0.000 C 
ATOM     20  C   UNL     1      97.418 132.005  75.549  0.00  0.00    +0.000 C 
ATOM     21  C   UNL     1      98.370 132.323  76.430  0.00  0.00    +0.000 C 
ATOM     22  C   UNL     1      99.756 132.421  75.958  0.00  0.00    +0.000 C 
ATOM     23  C   UNL     1      99.785 133.177  74.603  0.00  0.00    +0.000 C 
ATOM     24  C   UNL     1      99.091 134.576  74.852  0.00  0.00    +0.000 C 
ATOM     25  C   UNL     1     101.242 133.347  74.165  0.00  0.00    +0.000 C 
ENDROOT
BRANCH  18  26
ATOM     26  N   UNL     1      93.268 134.189  74.997  0.00  0.00    +0.000 N 
ATOM     27  N   UNL     1      92.805 135.228  75.749  0.00  0.00    +0.000 NA
ATOM     28  C   UNL     1      92.298 136.030  74.819  0.00  0.00    +0.000 A 
ATOM     29  N   UNL     1      92.456 135.621  73.524  0.00  0.00    +0.000 NA
ATOM     30  C   UNL     1      93.146 134.491  73.642  0.00  0.00    +0.000 A 
BRANCH  30  31
ATOM     31  C   UNL     1      93.648 133.783  72.447  0.00  0.00    +0.000 A 
ATOM     32  C   UNL     1      95.014 133.584  72.234  0.00  0.00    +0.000 A 
ATOM     33  C   UNL     1      95.442 132.898  71.091  0.00  0.00    +0.000 A 
ATOM     34  N   UNL     1      94.615 132.438  70.131  0.00  0.00    +0.000 NA
ATOM     35  C   UNL     1      93.314 132.587  70.373  0.00  0.00    +0.000 A 
ATOM     36  C   UNL     1      92.824 133.175  71.527  0.00  0.00    +0.000 A 
ENDBRANCH  30  31
ENDBRANCH  18  26
BRANCH   1  37
ATOM     37  C   UNL     1     102.778 133.351  72.043  0.00  0.00    +0.000 C 
ATOM     38  C   UNL     1     104.109 134.138  72.028  0.00  0.00    +0.000 C 
BRANCH  37  40
ATOM     39  C   UNL     1     103.125 133.703  69.457  0.00  0.00    +0.000 C 
ATOM     40  C   UNL     1     102.611 132.799  70.573  0.00  0.00    +0.000 C 
ATOM     41  C   UNL     1     102.990 131.317  70.343  0.00  0.00    +0.000 C 
ENDBRANCH  37  40
ENDBRANCH   1  37
BRANCH  25  42
ATOM     42  C   UNL     1     102.070 133.737  75.384  0.00  0.00    +0.000 C 
ATOM     43  O   UNL     1     101.920 134.764  76.033  0.00  0.00    +0.000 OA
BRANCH  42  44
ATOM     44  O   UNL     1     103.151 132.980  75.615  0.00  0.00    +0.000 OA
ATOM     45  H   UNL     1     103.833 133.400  75.048  0.00  0.00    +0.000 HD
ENDBRANCH  42  44
ENDBRANCH  25  42
BRANCH  19  46
ATOM     46  O   UNL     1      91.924 131.360  76.044  0.00  0.00    +0.000 OA
BRANCH  46  47
ATOM     47  C   UNL     1      90.737 131.717  75.355  0.00  0.00    +0.000 C 
BRANCH  47  48
ATOM     48  C   UNL     1      89.679 130.604  75.437  0.00  0.00    +0.000 C 
ATOM     49  C   UNL     1      88.480 131.268  76.151  0.00  0.00    +0.000 C 
BRANCH  48  50
ATOM     50  C   UNL     1      89.325 129.989  74.022  0.00  0.00    +0.000 C 
ATOM     51  C   UNL     1      90.386 130.394  72.977  0.00  0.00    +0.000 C 
ATOM     52  C   UNL     1      89.282 128.441  74.074  0.00  0.00    +0.000 C 
ATOM     53  C   UNL     1      87.952 130.452  73.479  0.00  0.00    +0.000 C 
ENDBRANCH  48  50
BRANCH  48  54
ATOM     54  N   UNL     1      90.218 129.593  76.371  0.00  0.00    +0.000 NA
ATOM     55  H   UNL     1      89.530 129.292  77.036  0.00  0.00    +0.000 HD
ATOM     56  H   UNL     1      90.499 128.763  75.824  0.00  0.00    +0.000 HD
ENDBRANCH  48  54
ENDBRANCH  47  48
ENDBRANCH  46  47
ENDBRANCH  19  46
TORSDOF 11
ENDMDL
MODEL 3
REMARK VINA RESULT:    -5.696      7.385     12.364
REMARK INTER + INTRA:         -12.242
REMARK INTER:                  -8.649
REMARK INTRA:                  -3.593
REMARK UNBOUND:                -3.216
REMARK  Name = 
REMARK  22 active torsions:
REMARK  status: ('A' for Active; 'I' for Inactive)
REMARK    1  A    between atoms: C_1  and  C_2
REMARK    2  A    between atoms: C_2  and  C_3
REMARK    3  A    between atoms: C_2  and  C_4
REMARK    4  A    between atoms: C_4  and  C_5
REMARK    5  A    between atoms: C_4  and  C_6
REMARK    6  A    between atoms: C_6  and  C_7
REMARK    7  A    between atoms: C_10  and  C_11
REMARK    8  A    between atoms: C_16  and  C_17
REMARK    9  A    between atoms: C_23  and  N_24
REMARK   10  A    between atoms: C_28  and  C_29
REMARK   11  A    between atoms: C_35  and  O_36
REMARK   12  A    between atoms: O_36  and  C_37
REMARK   13  A    between atoms: C_37  and  C_38
REMARK   14  A    between atoms: C_38  and  C_39
REMARK   15  A    between atoms: C_38  and  N_40
REMARK   16  A    between atoms: C_38  and  C_41
REMARK   17  A    between atoms: C_41  and  C_42
REMARK   18  A    between atoms: C_41  and  C_43
REMARK   19  A    between atoms: C_41  and  C_44
REMARK   20  A    between atoms: C_48  and  C_49
REMARK   21  A    between atoms: C_50  and  C_51
REMARK   22  A    between atoms: C_51  and  O_53
REMARK                            x       y       z     vdW  Elec       q    Type
REMARK                         _______ _______ _______ _____ _____    ______ ____
ROOT
ATOM      1  C   UNL     1     103.100 140.414  66.705  0.00  0.00    +0.000 C 
ATOM      2  C   UNL     1     103.912 141.581  67.349  0.00  0.00    +0.000 C 
ATOM      3  C   UNL     1     101.860 140.233  67.716  0.00  0.00    +0.000 C 
ATOM      4  C   UNL     1     101.561 138.845  68.420  0.00  0.00    +0.000 C 
ATOM      5  C   UNL     1     102.244 137.644  67.690  0.00  0.00    +0.000 C 
ATOM      6  C   UNL     1     101.391 137.567  66.407  0.00  0.00    +0.000 C 
ATOM      7  C   UNL     1     102.104 136.214  68.329  0.00  0.00    +0.000 C 
ATOM      8  C   UNL     1     101.564 135.047  67.453  0.00  0.00    +0.000 C 
ATOM      9  C   UNL     1     101.260 133.800  68.292  0.00  0.00    +0.000 C 
ATOM     10  C   UNL     1     101.706 133.954  69.759  0.00  0.00    +0.000 C 
ATOM     11  C   UNL     1     101.515 132.746  70.658  0.00  0.00    +0.000 C 
ATOM     12  C   UNL     1     100.144 132.076  70.417  0.00  0.00    +0.000 C 
ATOM     13  C   UNL     1     102.604 131.710  70.327  0.00  0.00    +0.000 C 
ATOM     14  O   UNL     1     103.890 132.235  70.612  0.00  0.00    +0.000 OA
ATOM     15  C   UNL     1     104.193 133.345  69.778  0.00  0.00    +0.000 C 
ATOM     16  C   UNL     1     103.158 134.497  69.928  0.00  0.00    +0.000 C 
ATOM     17  C   UNL     1     103.367 135.138  71.302  0.00  0.00    +0.000 C 
ATOM     18  C   UNL     1     102.691 134.386  72.434  0.00  0.00    +0.000 C 
ATOM     19  C   UNL     1     101.588 133.308  72.124  0.00  0.00    +0.000 C 
ATOM     20  C   UNL     1     103.359 135.572  68.902  0.00  0.00    +0.000 C 
ATOM     21  C   UNL     1     104.557 135.826  68.372  0.00  0.00    +0.000 C 
ATOM     22  C   UNL     1     104.649 136.818  67.294  0.00  0.00    +0.000 C 
ATOM     23  C   UNL     1     103.774 138.049  67.650  0.00  0.00    +0.000 C 
ATOM     24  C   UNL     1     104.285 138.573  69.052  0.00  0.00    +0.000 C 
ATOM     25  C   UNL     1     103.946 139.109  66.559  0.00  0.00    +0.000 C 
ENDROOT
BRANCH  18  26
ATOM     26  N   UNL     1     102.320 135.348  73.502  0.00  0.00    +0.000 N 
ATOM     27  N   UNL     1     103.211 135.488  74.524  0.00  0.00    +0.000 NA
ATOM     28  C   UNL     1     102.540 136.270  75.363  0.00  0.00    +0.000 A 
ATOM     29  N   UNL     1     101.315 136.699  74.933  0.00  0.00    +0.000 NA
ATOM     30  C   UNL     1     101.218 136.176  73.715  0.00  0.00    +0.000 A 
BRANCH  30  31
ATOM     31  C   UNL     1     100.080 136.511  72.837  0.00  0.00    +0.000 A 
ATOM     32  C   UNL     1     100.265 137.168  71.617  0.00  0.00    +0.000 A 
ATOM     33  C   UNL     1      99.157 137.457  70.813  0.00  0.00    +0.000 A 
ATOM     34  N   UNL     1      97.882 137.178  71.154  0.00  0.00    +0.000 NA
ATOM     35  C   UNL     1      97.725 136.505  72.292  0.00  0.00    +0.000 A 
ATOM     36  C   UNL     1      98.788 136.110  73.088  0.00  0.00    +0.000 A 
ENDBRANCH  30  31
ENDBRANCH  18  26
BRANCH   1  37
ATOM     37  C   UNL     1     102.628 140.934  65.222  0.00  0.00    +0.000 C 
ATOM     38  C   UNL     1     101.608 142.094  65.154  0.00  0.00    +0.000 C 
BRANCH  37  40
ATOM     39  C   UNL     1     100.644 139.965  63.789  0.00  0.00    +0.000 C 
ATOM     40  C   UNL     1     102.119 139.877  64.164  0.00  0.00    +0.000 C 
ATOM     41  C   UNL     1     103.022 139.644  62.929  0.00  0.00    +0.000 C 
ENDBRANCH  37  40
ENDBRANCH   1  37
BRANCH  25  42
ATOM     42  C   UNL     1     105.423 139.184  66.189  0.00  0.00    +0.000 C 
ATOM     43  O   UNL     1     106.306 139.625  66.913  0.00  0.00    +0.000 OA
BRANCH  42  44
ATOM     44  O   UNL     1     105.711 138.922  64.907  0.00  0.00    +0.000 OA
ATOM     45  H   UNL     1     105.779 139.819  64.515  0.00  0.00    +0.000 HD
ENDBRANCH  42  44
ENDBRANCH  25  42
BRANCH  19  46
ATOM     46  O   UNL     1     101.708 132.150  72.953  0.00  0.00    +0.000 OA
BRANCH  46  47
ATOM     47  C   UNL     1     100.830 132.148  74.067  0.00  0.00    +0.000 C 
BRANCH  47  48
ATOM     48  C   UNL     1     100.052 130.826  74.172  0.00  0.00    +0.000 C 
ATOM     49  C   UNL     1     100.492 130.230  75.529  0.00  0.00    +0.000 C 
BRANCH  48  50
ATOM     50  C   UNL     1      98.488 131.023  74.033  0.00  0.00    +0.000 C 
ATOM     51  C   UNL     1      97.904 130.006  73.029  0.00  0.00    +0.000 C 
ATOM     52  C   UNL     1      97.769 130.813  75.389  0.00  0.00    +0.000 C 
ATOM     53  C   UNL     1      98.089 132.433  73.534  0.00  0.00    +0.000 C 
ENDBRANCH  48  50
BRANCH  48  54
ATOM     54  N   UNL     1     100.603 129.941  73.125  0.00  0.00    +0.000 NA
ATOM     55  H   UNL     1      99.972 129.198  72.891  0.00  0.00    +0.000 HD
ATOM     56  H   UNL     1     100.746 130.501  72.268  0.00  0.00    +0.000 HD
ENDBRANCH  48  54
ENDBRANCH  47  48
ENDBRANCH  46  47
ENDBRANCH  19  46
TORSDOF 11
ENDMDL
MODEL 4
REMARK VINA RESULT:    -5.627      2.462      4.666
REMARK INTER + INTRA:         -12.133
REMARK INTER:                  -8.999
REMARK INTRA:                  -3.134
REMARK UNBOUND:                -3.216
REMARK  Name = 
REMARK  22 active torsions:
REMARK  status: ('A' for Active; 'I' for Inactive)
REMARK    1  A    between atoms: C_1  and  C_2
REMARK    2  A    between atoms: C_2  and  C_3
REMARK    3  A    between atoms: C_2  and  C_4
REMARK    4  A    between atoms: C_4  and  C_5
REMARK    5  A    between atoms: C_4  and  C_6
REMARK    6  A    between atoms: C_6  and  C_7
REMARK    7  A    between atoms: C_10  and  C_11
REMARK    8  A    between atoms: C_16  and  C_17
REMARK    9  A    between atoms: C_23  and  N_24
REMARK   10  A    between atoms: C_28  and  C_29
REMARK   11  A    between atoms: C_35  and  O_36
REMARK   12  A    between atoms: O_36  and  C_37
REMARK   13  A    between atoms: C_37  and  C_38
REMARK   14  A    between atoms: C_38  and  C_39
REMARK   15  A    between atoms: C_38  and  N_40
REMARK   16  A    between atoms: C_38  and  C_41
REMARK   17  A    between atoms: C_41  and  C_42
REMARK   18  A    between atoms: C_41  and  C_43
REMARK   19  A    between atoms: C_41  and  C_44
REMARK   20  A    between atoms: C_48  and  C_49
REMARK   21  A    between atoms: C_50  and  C_51
REMARK   22  A    between atoms: C_51  and  O_53
REMARK                            x       y       z     vdW  Elec       q    Type
REMARK                         _______ _______ _______ _____ _____    ______ ____
ROOT
ATOM      1  C   UNL     1     100.503 131.710  74.678  0.00  0.00    +0.000 C 
ATOM      2  C   UNL     1     100.968 130.308  75.182  0.00  0.00    +0.000 C 
ATOM      3  C   UNL     1      99.445 132.168  75.803  0.00  0.00    +0.000 C 
ATOM      4  C   UNL     1      97.952 132.544  75.432  0.00  0.00    +0.000 C 
ATOM      5  C   UNL     1      97.777 132.880  73.915  0.00  0.00    +0.000 C 
ATOM      6  C   UNL     1      98.500 134.241  73.840  0.00  0.00    +0.000 C 
ATOM      7  C   UNL     1      96.329 133.187  73.388  0.00  0.00    +0.000 C 
ATOM      8  C   UNL     1      96.076 134.509  72.607  0.00  0.00    +0.000 C 
ATOM      9  C   UNL     1      94.578 134.762  72.388  0.00  0.00    +0.000 C 
ATOM     10  C   UNL     1      93.707 133.579  72.852  0.00  0.00    +0.000 C 
ATOM     11  C   UNL     1      92.213 133.700  72.613  0.00  0.00    +0.000 C 
ATOM     12  C   UNL     1      91.701 135.116  72.957  0.00  0.00    +0.000 C 
ATOM     13  C   UNL     1      91.934 133.453  71.119  0.00  0.00    +0.000 C 
ATOM     14  O   UNL     1      92.303 132.133  70.758  0.00  0.00    +0.000 OA
ATOM     15  C   UNL     1      93.703 131.930  70.893  0.00  0.00    +0.000 C 
ATOM     16  C   UNL     1      94.200 132.189  72.345  0.00  0.00    +0.000 C 
ATOM     17  C   UNL     1      93.684 131.049  73.227  0.00  0.00    +0.000 C 
ATOM     18  C   UNL     1      92.249 131.235  73.686  0.00  0.00    +0.000 C 
ATOM     19  C   UNL     1      91.556 132.642  73.572  0.00  0.00    +0.000 C 
ATOM     20  C   UNL     1      95.696 132.180  72.439  0.00  0.00    +0.000 C 
ATOM     21  C   UNL     1      96.451 131.467  71.599  0.00  0.00    +0.000 C 
ATOM     22  C   UNL     1      97.910 131.599  71.687  0.00  0.00    +0.000 C 
ATOM     23  C   UNL     1      98.339 131.597  73.179  0.00  0.00    +0.000 C 
ATOM     24  C   UNL     1      97.776 130.259  73.806  0.00  0.00    +0.000 C 
ATOM     25  C   UNL     1      99.867 131.649  73.252  0.00  0.00    +0.000 C 
ENDROOT
BRANCH  18  26
ATOM     26  N   UNL     1      92.072 130.574  75.003  0.00  0.00    +0.000 N 
ATOM     27  N   UNL     1      91.286 129.460  75.018  0.00  0.00    +0.000 NA
ATOM     28  C   UNL     1      91.201 129.205  76.319  0.00  0.00    +0.000 A 
ATOM     29  N   UNL     1      91.924 130.027  77.139  0.00  0.00    +0.000 NA
ATOM     30  C   UNL     1      92.539 130.842  76.289  0.00  0.00    +0.000 A 
BRANCH  30  31
ATOM     31  C   UNL     1      93.539 131.818  76.767  0.00  0.00    +0.000 A 
ATOM     32  C   UNL     1      93.479 133.166  76.404  0.00  0.00    +0.000 A 
ATOM     33  C   UNL     1      94.444 134.055  76.890  0.00  0.00    +0.000 A 
ATOM     34  N   UNL     1      95.482 133.694  77.671  0.00  0.00    +0.000 NA
ATOM     35  C   UNL     1      95.497 132.417  78.052  0.00  0.00    +0.000 A 
ATOM     36  C   UNL     1      94.521 131.507  77.681  0.00  0.00    +0.000 A 
ENDBRANCH  30  31
ENDBRANCH  18  26
BRANCH   1  37
ATOM     37  C   UNL     1     101.838 132.664  74.647  0.00  0.00    +0.000 C 
ATOM     38  C   UNL     1     102.059 133.636  75.829  0.00  0.00    +0.000 C 
BRANCH  37  40
ATOM     39  C   UNL     1     102.073 135.031  73.518  0.00  0.00    +0.000 C 
ATOM     40  C   UNL     1     102.142 133.516  73.353  0.00  0.00    +0.000 C 
ATOM     41  C   UNL     1     103.359 133.077  72.505  0.00  0.00    +0.000 C 
ENDBRANCH  37  40
ENDBRANCH   1  37
BRANCH  25  42
ATOM     42  C   UNL     1     100.433 130.709  72.194  0.00  0.00    +0.000 C 
ATOM     43  O   UNL     1     100.760 129.546  72.392  0.00  0.00    +0.000 OA
BRANCH  42  44
ATOM     44  O   UNL     1     100.765 131.283  71.030  0.00  0.00    +0.000 OA
ATOM     45  H   UNL     1     100.799 130.519  70.415  0.00  0.00    +0.000 HD
ENDBRANCH  42  44
ENDBRANCH  25  42
BRANCH  19  46
ATOM     46  O   UNL     1      90.198 132.548  73.134  0.00  0.00    +0.000 OA
BRANCH  46  47
ATOM     47  C   UNL     1      89.247 132.715  74.173  0.00  0.00    +0.000 C 
BRANCH  47  48
ATOM     48  C   UNL     1      88.171 131.618  74.136  0.00  0.00    +0.000 C 
ATOM     49  C   UNL     1      88.022 131.178  75.610  0.00  0.00    +0.000 C 
BRANCH  48  50
ATOM     50  C   UNL     1      86.820 132.106  73.471  0.00  0.00    +0.000 C 
ATOM     51  C   UNL     1      85.868 132.678  74.542  0.00  0.00    +0.000 C 
ATOM     52  C   UNL     1      87.076 133.219  72.424  0.00  0.00    +0.000 C 
ATOM     53  C   UNL     1      86.054 130.978  72.739  0.00  0.00    +0.000 C 
ENDBRANCH  48  50
BRANCH  48  54
ATOM     54  N   UNL     1      88.772 130.477  73.415  0.00  0.00    +0.000 NA
ATOM     55  H   UNL     1      89.106 130.740  72.506  0.00  0.00    +0.000 HD
ATOM     56  H   UNL     1      89.587 130.144  73.955  0.00  0.00    +0.000 HD
ENDBRANCH  48  54
ENDBRANCH  47  48
ENDBRANCH  46  47
ENDBRANCH  19  46
TORSDOF 11
ENDMDL
MODEL 5
REMARK VINA RESULT:    -5.596      7.421     12.692
REMARK INTER + INTRA:         -12.084
REMARK INTER:                  -9.493
REMARK INTRA:                  -2.590
REMARK UNBOUND:                -3.216
REMARK  Name = 
REMARK  22 active torsions:
REMARK  status: ('A' for Active; 'I' for Inactive)
REMARK    1  A    between atoms: C_1  and  C_2
REMARK    2  A    between atoms: C_2  and  C_3
REMARK    3  A    between atoms: C_2  and  C_4
REMARK    4  A    between atoms: C_4  and  C_5
REMARK    5  A    between atoms: C_4  and  C_6
REMARK    6  A    between atoms: C_6  and  C_7
REMARK    7  A    between atoms: C_10  and  C_11
REMARK    8  A    between atoms: C_16  and  C_17
REMARK    9  A    between atoms: C_23  and  N_24
REMARK   10  A    between atoms: C_28  and  C_29
REMARK   11  A    between atoms: C_35  and  O_36
REMARK   12  A    between atoms: O_36  and  C_37
REMARK   13  A    between atoms: C_37  and  C_38
REMARK   14  A    between atoms: C_38  and  C_39
REMARK   15  A    between atoms: C_38  and  N_40
REMARK   16  A    between atoms: C_38  and  C_41
REMARK   17  A    between atoms: C_41  and  C_42
REMARK   18  A    between atoms: C_41  and  C_43
REMARK   19  A    between atoms: C_41  and  C_44
REMARK   20  A    between atoms: C_48  and  C_49
REMARK   21  A    between atoms: C_50  and  C_51
REMARK   22  A    between atoms: C_51  and  O_53
REMARK                            x       y       z     vdW  Elec       q    Type
REMARK                         _______ _______ _______ _____ _____    ______ ____
ROOT
ATOM      1  C   UNL     1     102.989 140.282  66.596  0.00  0.00    +0.000 C 
ATOM      2  C   UNL     1     103.729 141.497  67.238  0.00  0.00    +0.000 C 
ATOM      3  C   UNL     1     101.716 140.080  67.562  0.00  0.00    +0.000 C 
ATOM      4  C   UNL     1     101.442 138.701  68.292  0.00  0.00    +0.000 C 
ATOM      5  C   UNL     1     102.200 137.508  67.625  0.00  0.00    +0.000 C 
ATOM      6  C   UNL     1     101.403 137.363  66.312  0.00  0.00    +0.000 C 
ATOM      7  C   UNL     1     102.088 136.092  68.298  0.00  0.00    +0.000 C 
ATOM      8  C   UNL     1     101.629 134.881  67.434  0.00  0.00    +0.000 C 
ATOM      9  C   UNL     1     101.339 133.646  68.296  0.00  0.00    +0.000 C 
ATOM     10  C   UNL     1     101.719 133.856  69.774  0.00  0.00    +0.000 C 
ATOM     11  C   UNL     1     101.537 132.667  70.699  0.00  0.00    +0.000 C 
ATOM     12  C   UNL     1     100.204 131.937  70.423  0.00  0.00    +0.000 C 
ATOM     13  C   UNL     1     102.678 131.666  70.441  0.00  0.00    +0.000 C 
ATOM     14  O   UNL     1     103.930 132.249  70.762  0.00  0.00    +0.000 OA
ATOM     15  C   UNL     1     104.224 133.346  69.910  0.00  0.00    +0.000 C 
ATOM     16  C   UNL     1     103.140 134.461  69.986  0.00  0.00    +0.000 C 
ATOM     17  C   UNL     1     103.268 135.147  71.348  0.00  0.00    +0.000 C 
ATOM     18  C   UNL     1     102.576 134.399  72.474  0.00  0.00    +0.000 C 
ATOM     19  C   UNL     1     101.529 133.271  72.150  0.00  0.00    +0.000 C 
ATOM     20  C   UNL     1     103.342 135.515  68.938  0.00  0.00    +0.000 C 
ATOM     21  C   UNL     1     104.551 135.801  68.449  0.00  0.00    +0.000 C 
ATOM     22  C   UNL     1     104.649 136.767  67.348  0.00  0.00    +0.000 C 
ATOM     23  C   UNL     1     103.713 137.971  67.634  0.00  0.00    +0.000 C 
ATOM     24  C   UNL     1     104.146 138.553  69.039  0.00  0.00    +0.000 C 
ATOM     25  C   UNL     1     103.889 139.008  66.521  0.00  0.00    +0.000 C 
ENDROOT
BRANCH  18  26
ATOM     26  N   UNL     1     102.125 135.374  73.498  0.00  0.00    +0.000 N 
ATOM     27  N   UNL     1     101.209 136.297  73.090  0.00  0.00    +0.000 NA
ATOM     28  C   UNL     1     101.131 137.090  74.153  0.00  0.00    +0.000 A 
ATOM     29  N   UNL     1     101.875 136.714  75.237  0.00  0.00    +0.000 NA
ATOM     30  C   UNL     1     102.439 135.577  74.842  0.00  0.00    +0.000 A 
BRANCH  30  31
ATOM     31  C   UNL     1     103.233 134.761  75.780  0.00  0.00    +0.000 A 
ATOM     32  C   UNL     1     102.635 133.814  76.616  0.00  0.00    +0.000 A 
ATOM     33  C   UNL     1     103.431 133.056  77.482  0.00  0.00    +0.000 A 
ATOM     34  N   UNL     1     104.765 133.202  77.606  0.00  0.00    +0.000 NA
ATOM     35  C   UNL     1     105.329 134.069  76.766  0.00  0.00    +0.000 A 
ATOM     36  C   UNL     1     104.609 134.783  75.823  0.00  0.00    +0.000 A 
ENDBRANCH  30  31
ENDBRANCH  18  26
BRANCH   1  37
ATOM     37  C   UNL     1     102.559 140.743  65.081  0.00  0.00    +0.000 C 
ATOM     38  C   UNL     1     101.348 141.693  64.931  0.00  0.00    +0.000 C 
BRANCH  37  40
ATOM     39  C   UNL     1     100.913 139.390  63.534  0.00  0.00    +0.000 C 
ATOM     40  C   UNL     1     102.353 139.638  63.972  0.00  0.00    +0.000 C 
ATOM     41  C   UNL     1     103.329 139.671  62.772  0.00  0.00    +0.000 C 
ENDBRANCH  37  40
ENDBRANCH   1  37
BRANCH  25  42
ATOM     42  C   UNL     1     105.376 139.130  66.208  0.00  0.00    +0.000 C 
ATOM     43  O   UNL     1     106.218 139.585  66.972  0.00  0.00    +0.000 OA
BRANCH  42  44
ATOM     44  O   UNL     1     105.719 138.899  64.934  0.00  0.00    +0.000 OA
ATOM     45  H   UNL     1     105.946 139.795  64.605  0.00  0.00    +0.000 HD
ENDBRANCH  42  44
ENDBRANCH  25  42
BRANCH  19  46
ATOM     46  O   UNL     1     101.659 132.141  73.016  0.00  0.00    +0.000 OA
BRANCH  46  47
ATOM     47  C   UNL     1     100.730 132.130  74.089  0.00  0.00    +0.000 C 
BRANCH  47  48
ATOM     48  C   UNL     1      99.996 130.782  74.187  0.00  0.00    +0.000 C 
ATOM     49  C   UNL     1     100.412 130.221  75.566  0.00  0.00    +0.000 C 
BRANCH  48  50
ATOM     50  C   UNL     1      98.432 130.921  73.994  0.00  0.00    +0.000 C 
ATOM     51  C   UNL     1      98.071 132.340  73.507  0.00  0.00    +0.000 C 
ATOM     52  C   UNL     1      97.901 129.913  72.944  0.00  0.00    +0.000 C 
ATOM     53  C   UNL     1      97.629 130.669  75.293  0.00  0.00    +0.000 C 
ENDBRANCH  48  50
BRANCH  48  54
ATOM     54  N   UNL     1     100.613 129.904  73.172  0.00  0.00    +0.000 NA
ATOM     55  H   UNL     1     100.012 129.140  72.921  0.00  0.00    +0.000 HD
ATOM     56  H   UNL     1     100.774 130.459  72.316  0.00  0.00    +0.000 HD
ENDBRANCH  48  54
ENDBRANCH  47  48
ENDBRANCH  46  47
ENDBRANCH  19  46
TORSDOF 11
ENDMDL
MODEL 6
REMARK VINA RESULT:    -5.585      2.609      3.855
REMARK INTER + INTRA:         -12.065
REMARK INTER:                  -9.188
REMARK INTRA:                  -2.877
REMARK UNBOUND:                -3.216
REMARK  Name = 
REMARK  22 active torsions:
REMARK  status: ('A' for Active; 'I' for Inactive)
REMARK    1  A    between atoms: C_1  and  C_2
REMARK    2  A    between atoms: C_2  and  C_3
REMARK    3  A    between atoms: C_2  and  C_4
REMARK    4  A    between atoms: C_4  and  C_5
REMARK    5  A    between atoms: C_4  and  C_6
REMARK    6  A    between atoms: C_6  and  C_7
REMARK    7  A    between atoms: C_10  and  C_11
REMARK    8  A    between atoms: C_16  and  C_17
REMARK    9  A    between atoms: C_23  and  N_24
REMARK   10  A    between atoms: C_28  and  C_29
REMARK   11  A    between atoms: C_35  and  O_36
REMARK   12  A    between atoms: O_36  and  C_37
REMARK   13  A    between atoms: C_37  and  C_38
REMARK   14  A    between atoms: C_38  and  C_39
REMARK   15  A    between atoms: C_38  and  N_40
REMARK   16  A    between atoms: C_38  and  C_41
REMARK   17  A    between atoms: C_41  and  C_42
REMARK   18  A    between atoms: C_41  and  C_43
REMARK   19  A    between atoms: C_41  and  C_44
REMARK   20  A    between atoms: C_48  and  C_49
REMARK   21  A    between atoms: C_50  and  C_51
REMARK   22  A    between atoms: C_51  and  O_53
REMARK                            x       y       z     vdW  Elec       q    Type
REMARK                         _______ _______ _______ _____ _____    ______ ____
ROOT
ATOM      1  C   UNL     1     100.412 132.797  72.004  0.00  0.00    +0.000 C 
ATOM      2  C   UNL     1     101.487 133.268  73.033  0.00  0.00    +0.000 C 
ATOM      3  C   UNL     1      99.351 134.009  72.007  0.00  0.00    +0.000 C 
ATOM      4  C   UNL     1      97.821 133.769  72.345  0.00  0.00    +0.000 C 
ATOM      5  C   UNL     1      97.401 132.272  72.190  0.00  0.00    +0.000 C 
ATOM      6  C   UNL     1      97.438 132.123  70.655  0.00  0.00    +0.000 C 
ATOM      7  C   UNL     1      95.930 131.873  72.577  0.00  0.00    +0.000 C 
ATOM      8  C   UNL     1      95.059 131.108  71.539  0.00  0.00    +0.000 C 
ATOM      9  C   UNL     1      93.593 131.022  71.981  0.00  0.00    +0.000 C 
ATOM     10  C   UNL     1      93.374 131.570  73.404  0.00  0.00    +0.000 C 
ATOM     11  C   UNL     1      91.967 131.464  73.965  0.00  0.00    +0.000 C 
ATOM     12  C   UNL     1      90.908 131.842  72.905  0.00  0.00    +0.000 C 
ATOM     13  C   UNL     1      91.713 130.003  74.378  0.00  0.00    +0.000 C 
ATOM     14  O   UNL     1      92.599 129.620  75.416  0.00  0.00    +0.000 OA
ATOM     15  C   UNL     1      93.949 129.632  74.975  0.00  0.00    +0.000 C 
ATOM     16  C   UNL     1      94.390 131.032  74.457  0.00  0.00    +0.000 C 
ATOM     17  C   UNL     1      94.502 131.964  75.666  0.00  0.00    +0.000 C 
ATOM     18  C   UNL     1      93.172 132.548  76.110  0.00  0.00    +0.000 C 
ATOM     19  C   UNL     1      91.921 132.485  75.158  0.00  0.00    +0.000 C 
ATOM     20  C   UNL     1      95.738 130.992  73.802  0.00  0.00    +0.000 C 
ATOM     21  C   UNL     1      96.664 130.094  74.148  0.00  0.00    +0.000 C 
ATOM     22  C   UNL     1      97.916 130.050  73.383  0.00  0.00    +0.000 C 
ATOM     23  C   UNL     1      98.414 131.498  73.128  0.00  0.00    +0.000 C 
ATOM     24  C   UNL     1      98.552 132.183  74.546  0.00  0.00    +0.000 C 
ATOM     25  C   UNL     1      99.762 131.434  72.404  0.00  0.00    +0.000 C 
ENDROOT
BRANCH  18  26
ATOM     26  N   UNL     1      93.407 133.881  76.720  0.00  0.00    +0.000 N 
ATOM     27  N   UNL     1      93.578 133.903  78.073  0.00  0.00    +0.000 NA
ATOM     28  C   UNL     1      93.608 135.208  78.321  0.00  0.00    +0.000 A 
ATOM     29  N   UNL     1      93.537 136.027  77.228  0.00  0.00    +0.000 NA
ATOM     30  C   UNL     1      93.493 135.175  76.209  0.00  0.00    +0.000 A 
BRANCH  30  31
ATOM     31  C   UNL     1      93.544 135.660  74.816  0.00  0.00    +0.000 A 
ATOM     32  C   UNL     1      94.558 135.264  73.939  0.00  0.00    +0.000 A 
ATOM     33  C   UNL     1      94.559 135.742  72.624  0.00  0.00    +0.000 A 
ATOM     34  N   UNL     1      93.654 136.614  72.135  0.00  0.00    +0.000 NA
ATOM     35  C   UNL     1      92.664 136.941  72.964  0.00  0.00    +0.000 A 
ATOM     36  C   UNL     1      92.555 136.431  74.247  0.00  0.00    +0.000 A 
ENDBRANCH  30  31
ENDBRANCH  18  26
BRANCH   1  37
ATOM     37  C   UNL     1     101.180 132.641  70.563  0.00  0.00    +0.000 C 
ATOM     38  C   UNL     1     100.346 132.177  69.346  0.00  0.00    +0.000 C 
BRANCH  37  40
ATOM     39  C   UNL     1     102.453 130.521  69.658  0.00  0.00    +0.000 C 
ATOM     40  C   UNL     1     102.513 131.797  70.492  0.00  0.00    +0.000 C 
ATOM     41  C   UNL     1     103.821 132.587  70.254  0.00  0.00    +0.000 C 
ENDBRANCH  37  40
ENDBRANCH   1  37
BRANCH  25  42
ATOM     42  C   UNL     1     100.603 130.337  73.047  0.00  0.00    +0.000 C 
ATOM     43  O   UNL     1     101.296 130.479  74.045  0.00  0.00    +0.000 OA
BRANCH  42  44
ATOM     44  O   UNL     1     100.722 129.209  72.334  0.00  0.00    +0.000 OA
ATOM     45  H   UNL     1      99.788 128.968  72.154  0.00  0.00    +0.000 HD
ENDBRANCH  42  44
ENDBRANCH  25  42
BRANCH  19  46
ATOM     46  O   UNL     1      90.716 132.171  75.861  0.00  0.00    +0.000 OA
BRANCH  46  47
ATOM     47  C   UNL     1      89.835 133.273  76.011  0.00  0.00    +0.000 C 
BRANCH  47  48
ATOM     48  C   UNL     1      88.366 132.822  76.034  0.00  0.00    +0.000 C 
ATOM     49  C   UNL     1      87.784 133.479  77.307  0.00  0.00    +0.000 C 
BRANCH  48  50
ATOM     50  C   UNL     1      87.589 133.193  74.706  0.00  0.00    +0.000 C 
ATOM     51  C   UNL     1      88.277 134.376  73.992  0.00  0.00    +0.000 C 
ATOM     52  C   UNL     1      87.556 132.000  73.719  0.00  0.00    +0.000 C 
ATOM     53  C   UNL     1      86.118 133.606  74.952  0.00  0.00    +0.000 C 
ENDBRANCH  48  50
BRANCH  48  54
ATOM     54  N   UNL     1      88.386 131.366  76.285  0.00  0.00    +0.000 NA
ATOM     55  H   UNL     1      88.007 130.847  75.515  0.00  0.00    +0.000 HD
ATOM     56  H   UNL     1      89.369 131.069  76.398  0.00  0.00    +0.000 HD
ENDBRANCH  48  54
ENDBRANCH  47  48
ENDBRANCH  46  47
ENDBRANCH  19  46
TORSDOF 11
ENDMDL
MODEL 7
REMARK VINA RESULT:    -5.461      4.163     11.058
REMARK INTER + INTRA:         -11.870
REMARK INTER:                  -9.244
REMARK INTRA:                  -2.626
REMARK UNBOUND:                -3.216
REMARK  Name = 
REMARK  22 active torsions:
REMARK  status: ('A' for Active; 'I' for Inactive)
REMARK    1  A    between atoms: C_1  and  C_2
REMARK    2  A    between atoms: C_2  and  C_3
REMARK    3  A    between atoms: C_2  and  C_4
REMARK    4  A    between atoms: C_4  and  C_5
REMARK    5  A    between atoms: C_4  and  C_6
REMARK    6  A    between atoms: C_6  and  C_7
REMARK    7  A    between atoms: C_10  and  C_11
REMARK    8  A    between atoms: C_16  and  C_17
REMARK    9  A    between atoms: C_23  and  N_24
REMARK   10  A    between atoms: C_28  and  C_29
REMARK   11  A    between atoms: C_35  and  O_36
REMARK   12  A    between atoms: O_36  and  C_37
REMARK   13  A    between atoms: C_37  and  C_38
REMARK   14  A    between atoms: C_38  and  C_39
REMARK   15  A    between atoms: C_38  and  N_40
REMARK   16  A    between atoms: C_38  and  C_41
REMARK   17  A    between atoms: C_41  and  C_42
REMARK   18  A    between atoms: C_41  and  C_43
REMARK   19  A    between atoms: C_41  and  C_44
REMARK   20  A    between atoms: C_48  and  C_49
REMARK   21  A    between atoms: C_50  and  C_51
REMARK   22  A    between atoms: C_51  and  O_53
REMARK                            x       y       z     vdW  Elec       q    Type
REMARK                         _______ _______ _______ _____ _____    ______ ____
ROOT
ATOM      1  C   UNL     1      92.262 133.516  73.164  0.00  0.00    +0.000 C 
ATOM      2  C   UNL     1      91.678 134.345  71.977  0.00  0.00    +0.000 C 
ATOM      3  C   UNL     1      93.188 134.587  73.933  0.00  0.00    +0.000 C 
ATOM      4  C   UNL     1      94.731 134.324  74.176  0.00  0.00    +0.000 C 
ATOM      5  C   UNL     1      95.109 132.813  74.045  0.00  0.00    +0.000 C 
ATOM      6  C   UNL     1      94.460 132.244  75.324  0.00  0.00    +0.000 C 
ATOM      7  C   UNL     1      96.624 132.416  74.176  0.00  0.00    +0.000 C 
ATOM      8  C   UNL     1      97.030 131.321  75.205  0.00  0.00    +0.000 C 
ATOM      9  C   UNL     1      98.552 131.238  75.377  0.00  0.00    +0.000 C 
ATOM     10  C   UNL     1      99.307 132.142  74.383  0.00  0.00    +0.000 C 
ATOM     11  C   UNL     1     100.823 132.079  74.422  0.00  0.00    +0.000 C 
ATOM     12  C   UNL     1     101.348 132.055  75.875  0.00  0.00    +0.000 C 
ATOM     13  C   UNL     1     101.277 130.776  73.741  0.00  0.00    +0.000 C 
ATOM     14  O   UNL     1     100.902 130.774  72.374  0.00  0.00    +0.000 OA
ATOM     15  C   UNL     1      99.489 130.776  72.225  0.00  0.00    +0.000 C 
ATOM     16  C   UNL     1      98.824 132.008  72.907  0.00  0.00    +0.000 C 
ATOM     17  C   UNL     1      99.175 133.246  72.079  0.00  0.00    +0.000 C 
ATOM     18  C   UNL     1     100.547 133.817  72.390  0.00  0.00    +0.000 C 
ATOM     19  C   UNL     1     101.308 133.386  73.697  0.00  0.00    +0.000 C 
ATOM     20  C   UNL     1      97.328 131.899  72.930  0.00  0.00    +0.000 C 
ATOM     21  C   UNL     1      96.656 131.215  72.001  0.00  0.00    +0.000 C 
ATOM     22  C   UNL     1      95.204 131.065  72.158  0.00  0.00    +0.000 C 
ATOM     23  C   UNL     1      94.591 132.420  72.602  0.00  0.00    +0.000 C 
ATOM     24  C   UNL     1      95.013 133.483  71.510  0.00  0.00    +0.000 C 
ATOM     25  C   UNL     1      93.069 132.270  72.679  0.00  0.00    +0.000 C 
ENDROOT
BRANCH  18  26
ATOM     26  N   UNL     1     100.529 135.282  72.151  0.00  0.00    +0.000 N 
ATOM     27  N   UNL     1     100.260 136.067  73.233  0.00  0.00    +0.000 NA
ATOM     28  C   UNL     1     100.164 137.270  72.678  0.00  0.00    +0.000 A 
ATOM     29  N   UNL     1     100.414 137.332  71.335  0.00  0.00    +0.000 NA
ATOM     30  C   UNL     1     100.726 136.079  71.023  0.00  0.00    +0.000 A 
BRANCH  30  31
ATOM     31  C   UNL     1     101.199 135.731  69.669  0.00  0.00    +0.000 A 
ATOM     32  C   UNL     1     101.665 136.707  68.783  0.00  0.00    +0.000 A 
ATOM     33  C   UNL     1     102.113 136.328  67.512  0.00  0.00    +0.000 A 
ATOM     34  N   UNL     1     102.089 135.062  67.048  0.00  0.00    +0.000 NA
ATOM     35  C   UNL     1     101.694 134.136  67.920  0.00  0.00    +0.000 A 
ATOM     36  C   UNL     1     101.326 134.435  69.222  0.00  0.00    +0.000 A 
ENDBRANCH  30  31
ENDBRANCH  18  26
BRANCH   1  37
ATOM     37  C   UNL     1      90.984 133.029  74.069  0.00  0.00    +0.000 C 
ATOM     38  C   UNL     1      91.158 131.768  74.947  0.00  0.00    +0.000 C 
BRANCH  37  40
ATOM     39  C   UNL     1      88.985 131.447  73.407  0.00  0.00    +0.000 C 
ATOM     40  C   UNL     1      89.576 132.853  73.375  0.00  0.00    +0.000 C 
ATOM     41  C   UNL     1      88.515 133.937  73.677  0.00  0.00    +0.000 C 
ENDBRANCH  37  40
ENDBRANCH   1  37
BRANCH  25  42
ATOM     42  C   UNL     1      92.602 131.471  71.467  0.00  0.00    +0.000 C 
ATOM     43  O   UNL     1      92.633 131.869  70.310  0.00  0.00    +0.000 OA
BRANCH  42  44
ATOM     44  O   UNL     1      91.938 130.341  71.743  0.00  0.00    +0.000 OA
ATOM     45  H   UNL     1      92.659 129.720  71.981  0.00  0.00    +0.000 HD
ENDBRANCH  42  44
ENDBRANCH  25  42
BRANCH  19  46
ATOM     46  O   UNL     1     102.706 133.181  73.473  0.00  0.00    +0.000 OA
BRANCH  46  47
ATOM     47  C   UNL     1     103.399 134.348  73.062  0.00  0.00    +0.000 C 
BRANCH  47  48
ATOM     48  C   UNL     1     104.561 134.011  72.114  0.00  0.00    +0.000 C 
ATOM     49  C   UNL     1     104.010 132.874  71.224  0.00  0.00    +0.000 C 
BRANCH  48  50
ATOM     50  C   UNL     1     105.077 135.269  71.305  0.00  0.00    +0.000 C 
ATOM     51  C   UNL     1     106.569 135.528  71.603  0.00  0.00    +0.000 C 
ATOM     52  C   UNL     1     104.932 135.056  69.777  0.00  0.00    +0.000 C 
ATOM     53  C   UNL     1     104.314 136.572  71.644  0.00  0.00    +0.000 C 
ENDBRANCH  48  50
BRANCH  48  54
ATOM     54  N   UNL     1     105.618 133.412  72.956  0.00  0.00    +0.000 NA
ATOM     55  H   UNL     1     105.354 132.509  73.303  0.00  0.00    +0.000 HD
ATOM     56  H   UNL     1     106.461 133.280  72.374  0.00  0.00    +0.000 HD
ENDBRANCH  48  54
ENDBRANCH  47  48
ENDBRANCH  46  47
ENDBRANCH  19  46
TORSDOF 11
ENDMDL
MODEL 8
REMARK VINA RESULT:    -5.266      7.182     12.480
REMARK INTER + INTRA:         -11.561
REMARK INTER:                  -8.712
REMARK INTRA:                  -2.849
REMARK UNBOUND:                -3.216
REMARK  Name = 
REMARK  22 active torsions:
REMARK  status: ('A' for Active; 'I' for Inactive)
REMARK    1  A    between atoms: C_1  and  C_2
REMARK    2  A    between atoms: C_2  and  C_3
REMARK    3  A    between atoms: C_2  and  C_4
REMARK    4  A    between atoms: C_4  and  C_5
REMARK    5  A    between atoms: C_4  and  C_6
REMARK    6  A    between atoms: C_6  and  C_7
REMARK    7  A    between atoms: C_10  and  C_11
REMARK    8  A    between atoms: C_16  and  C_17
REMARK    9  A    between atoms: C_23  and  N_24
REMARK   10  A    between atoms: C_28  and  C_29
REMARK   11  A    between atoms: C_35  and  O_36
REMARK   12  A    between atoms: O_36  and  C_37
REMARK   13  A    between atoms: C_37  and  C_38
REMARK   14  A    between atoms: C_38  and  C_39
REMARK   15  A    between atoms: C_38  and  N_40
REMARK   16  A    between atoms: C_38  and  C_41
REMARK   17  A    between atoms: C_41  and  C_42
REMARK   18  A    between atoms: C_41  and  C_43
REMARK   19  A    between atoms: C_41  and  C_44
REMARK   20  A    between atoms: C_48  and  C_49
REMARK   21  A    between atoms: C_50  and  C_51
REMARK   22  A    between atoms: C_51  and  O_53
REMARK                            x       y       z     vdW  Elec       q    Type
REMARK                         _______ _______ _______ _____ _____    ______ ____
ROOT
ATOM      1  C   UNL     1     104.343 139.408  66.678  0.00  0.00    +0.000 C 
ATOM      2  C   UNL     1     104.351 138.945  65.187  0.00  0.00    +0.000 C 
ATOM      3  C   UNL     1     105.285 138.320  67.401  0.00  0.00    +0.000 C 
ATOM      4  C   UNL     1     104.759 137.447  68.614  0.00  0.00    +0.000 C 
ATOM      5  C   UNL     1     103.499 138.069  69.298  0.00  0.00    +0.000 C 
ATOM      6  C   UNL     1     104.128 139.289  70.002  0.00  0.00    +0.000 C 
ATOM      7  C   UNL     1     102.818 137.264  70.464  0.00  0.00    +0.000 C 
ATOM      8  C   UNL     1     102.580 137.971  71.830  0.00  0.00    +0.000 C 
ATOM      9  C   UNL     1     102.142 136.979  72.915  0.00  0.00    +0.000 C 
ATOM     10  C   UNL     1     101.896 135.565  72.356  0.00  0.00    +0.000 C 
ATOM     11  C   UNL     1     101.388 134.524  73.337  0.00  0.00    +0.000 C 
ATOM     12  C   UNL     1     102.132 134.616  74.688  0.00  0.00    +0.000 C 
ATOM     13  C   UNL     1      99.897 134.790  73.607  0.00  0.00    +0.000 C 
ATOM     14  O   UNL     1      99.143 134.634  72.416  0.00  0.00    +0.000 OA
ATOM     15  C   UNL     1      99.503 135.604  71.443  0.00  0.00    +0.000 C 
ATOM     16  C   UNL     1     101.013 135.534  71.071  0.00  0.00    +0.000 C 
ATOM     17  C   UNL     1     101.236 134.256  70.259  0.00  0.00    +0.000 C 
ATOM     18  C   UNL     1     101.391 133.011  71.115  0.00  0.00    +0.000 C 
ATOM     19  C   UNL     1     101.681 133.139  72.656  0.00  0.00    +0.000 C 
ATOM     20  C   UNL     1     101.434 136.686  70.207  0.00  0.00    +0.000 C 
ATOM     21  C   UNL     1     100.579 137.303  69.388  0.00  0.00    +0.000 C 
ATOM     22  C   UNL     1     101.041 138.491  68.661  0.00  0.00    +0.000 C 
ATOM     23  C   UNL     1     102.468 138.234  68.108  0.00  0.00    +0.000 C 
ATOM     24  C   UNL     1     102.377 136.930  67.218  0.00  0.00    +0.000 C 
ATOM     25  C   UNL     1     102.903 139.446  67.281  0.00  0.00    +0.000 C 
ENDROOT
BRANCH  18  26
ATOM     26  N   UNL     1     102.267 132.043  70.408  0.00  0.00    +0.000 N 
ATOM     27  N   UNL     1     101.637 131.102  69.649  0.00  0.00    +0.000 NA
ATOM     28  C   UNL     1     102.650 130.322  69.289  0.00  0.00    +0.000 A 
ATOM     29  N   UNL     1     103.891 130.722  69.701  0.00  0.00    +0.000 NA
ATOM     30  C   UNL     1     103.648 131.861  70.341  0.00  0.00    +0.000 A 
BRANCH  30  31
ATOM     31  C   UNL     1     104.756 132.700  70.839  0.00  0.00    +0.000 A 
ATOM     32  C   UNL     1     105.838 132.150  71.532  0.00  0.00    +0.000 A 
ATOM     33  C   UNL     1     106.870 132.985  71.975  0.00  0.00    +0.000 A 
ATOM     34  N   UNL     1     106.881 134.324  71.818  0.00  0.00    +0.000 NA
ATOM     35  C   UNL     1     105.872 134.828  71.110  0.00  0.00    +0.000 A 
ATOM     36  C   UNL     1     104.868 134.045  70.565  0.00  0.00    +0.000 A 
ENDBRANCH  30  31
ENDBRANCH  18  26
BRANCH   1  37
ATOM     37  C   UNL     1     104.993 140.915  66.703  0.00  0.00    +0.000 C 
ATOM     38  C   UNL     1     104.477 141.906  67.772  0.00  0.00    +0.000 C 
BRANCH  37  40
ATOM     39  C   UNL     1     104.030 142.878  65.236  0.00  0.00    +0.000 C 
ATOM     40  C   UNL     1     105.048 141.749  65.363  0.00  0.00    +0.000 C 
ATOM     41  C   UNL     1     106.451 142.172  64.868  0.00  0.00    +0.000 C 
ENDBRANCH  37  40
ENDBRANCH   1  37
BRANCH  25  42
ATOM     42  C   UNL     1     101.721 139.898  66.431  0.00  0.00    +0.000 C 
ATOM     43  O   UNL     1     101.278 139.290  65.466  0.00  0.00    +0.000 OA
BRANCH  42  44
ATOM     44  O   UNL     1     101.286 141.144  66.662  0.00  0.00    +0.000 OA
ATOM     45  H   UNL     1     100.329 141.081  66.455  0.00  0.00    +0.000 HD
ENDBRANCH  42  44
ENDBRANCH  25  42
BRANCH  19  46
ATOM     46  O   UNL     1     100.944 132.189  73.430  0.00  0.00    +0.000 OA
BRANCH  46  47
ATOM     47  C   UNL     1      99.958 131.487  72.691  0.00  0.00    +0.000 C 
BRANCH  47  48
ATOM     48  C   UNL     1      99.155 130.529  73.587  0.00  0.00    +0.000 C 
ATOM     49  C   UNL     1     100.097 130.243  74.779  0.00  0.00    +0.000 C 
BRANCH  48  50
ATOM     50  C   UNL     1      97.747 131.117  74.007  0.00  0.00    +0.000 C 
ATOM     51  C   UNL     1      96.804 129.984  74.463  0.00  0.00    +0.000 C 
ATOM     52  C   UNL     1      97.881 132.121  75.179  0.00  0.00    +0.000 C 
ATOM     53  C   UNL     1      97.031 131.870  72.860  0.00  0.00    +0.000 C 
ENDBRANCH  48  50
BRANCH  48  54
ATOM     54  N   UNL     1      99.035 129.265  72.833  0.00  0.00    +0.000 NA
ATOM     55  H   UNL     1      99.248 128.466  73.401  0.00  0.00    +0.000 HD
ATOM     56  H   UNL     1      98.055 129.165  72.521  0.00  0.00    +0.000 HD
ENDBRANCH  48  54
ENDBRANCH  47  48
ENDBRANCH  46  47
ENDBRANCH  19  46
TORSDOF 11
ENDMDL
MODEL 9
REMARK VINA RESULT:    -5.172      3.681     10.914
REMARK INTER + INTRA:         -11.411
REMARK INTER:                  -8.701
REMARK INTRA:                  -2.710
REMARK UNBOUND:                -3.216
REMARK  Name = 
REMARK  22 active torsions:
REMARK  status: ('A' for Active; 'I' for Inactive)
REMARK    1  A    between atoms: C_1  and  C_2
REMARK    2  A    between atoms: C_2  and  C_3
REMARK    3  A    between atoms: C_2  and  C_4
REMARK    4  A    between atoms: C_4  and  C_5
REMARK    5  A    between atoms: C_4  and  C_6
REMARK    6  A    between atoms: C_6  and  C_7
REMARK    7  A    between atoms: C_10  and  C_11
REMARK    8  A    between atoms: C_16  and  C_17
REMARK    9  A    between atoms: C_23  and  N_24
REMARK   10  A    between atoms: C_28  and  C_29
REMARK   11  A    between atoms: C_35  and  O_36
REMARK   12  A    between atoms: O_36  and  C_37
REMARK   13  A    between atoms: C_37  and  C_38
REMARK   14  A    between atoms: C_38  and  C_39
REMARK   15  A    between atoms: C_38  and  N_40
REMARK   16  A    between atoms: C_38  and  C_41
REMARK   17  A    between atoms: C_41  and  C_42
REMARK   18  A    between atoms: C_41  and  C_43
REMARK   19  A    between atoms: C_41  and  C_44
REMARK   20  A    between atoms: C_48  and  C_49
REMARK   21  A    between atoms: C_50  and  C_51
REMARK   22  A    between atoms: C_51  and  O_53
REMARK                            x       y       z     vdW  Elec       q    Type
REMARK                         _______ _______ _______ _____ _____    ______ ____
ROOT
ATOM      1  C   UNL     1      92.297 133.560  72.915  0.00  0.00    +0.000 C 
ATOM      2  C   UNL     1      91.699 133.943  71.525  0.00  0.00    +0.000 C 
ATOM      3  C   UNL     1      93.294 134.783  73.231  0.00  0.00    +0.000 C 
ATOM      4  C   UNL     1      94.834 134.543  73.516  0.00  0.00    +0.000 C 
ATOM      5  C   UNL     1      95.146 133.066  73.922  0.00  0.00    +0.000 C 
ATOM      6  C   UNL     1      94.526 133.023  75.334  0.00  0.00    +0.000 C 
ATOM      7  C   UNL     1      96.648 132.664  74.151  0.00  0.00    +0.000 C 
ATOM      8  C   UNL     1      97.050 131.985  75.492  0.00  0.00    +0.000 C 
ATOM      9  C   UNL     1      98.573 131.889  75.647  0.00  0.00    +0.000 C 
ATOM     10  C   UNL     1      99.323 132.342  74.380  0.00  0.00    +0.000 C 
ATOM     11  C   UNL     1     100.836 132.218  74.404  0.00  0.00    +0.000 C 
ATOM     12  C   UNL     1     101.417 132.683  75.757  0.00  0.00    +0.000 C 
ATOM     13  C   UNL     1     101.209 130.736  74.220  0.00  0.00    +0.000 C 
ATOM     14  O   UNL     1     100.779 130.270  72.953  0.00  0.00    +0.000 OA
ATOM     15  C   UNL     1      99.362 130.292  72.846  0.00  0.00    +0.000 C 
ATOM     16  C   UNL     1      98.776 131.718  73.060  0.00  0.00    +0.000 C 
ATOM     17  C   UNL     1      99.143 132.563  71.838  0.00  0.00    +0.000 C 
ATOM     18  C   UNL     1     100.549 133.135  71.893  0.00  0.00    +0.000 C 
ATOM     19  C   UNL     1     101.344 133.155  73.250  0.00  0.00    +0.000 C 
ATOM     20  C   UNL     1      97.279 131.703  73.155  0.00  0.00    +0.000 C 
ATOM     21  C   UNL     1      96.543 130.770  72.546  0.00  0.00    +0.000 C 
ATOM     22  C   UNL     1      95.094 130.761  72.780  0.00  0.00    +0.000 C 
ATOM     23  C   UNL     1      94.554 132.215  72.726  0.00  0.00    +0.000 C 
ATOM     24  C   UNL     1      94.974 132.799  71.318  0.00  0.00    +0.000 C 
ATOM     25  C   UNL     1      93.032 132.182  72.886  0.00  0.00    +0.000 C 
ENDROOT
BRANCH  18  26
ATOM     26  N   UNL     1     100.580 134.419  71.148  0.00  0.00    +0.000 N 
ATOM     27  N   UNL     1     101.253 134.412  69.963  0.00  0.00    +0.000 NA
ATOM     28  C   UNL     1     101.232 135.699  69.632  0.00  0.00    +0.000 A 
ATOM     29  N   UNL     1     100.543 136.523  70.477  0.00  0.00    +0.000 NA
ATOM     30  C   UNL     1     100.062 135.690  71.393  0.00  0.00    +0.000 A 
BRANCH  30  31
ATOM     31  C   UNL     1      99.132 136.167  72.437  0.00  0.00    +0.000 A 
ATOM     32  C   UNL     1      99.444 136.069  73.795  0.00  0.00    +0.000 A 
ATOM     33  C   UNL     1      98.535 136.544  74.748  0.00  0.00    +0.000 A 
ATOM     34  N   UNL     1      97.328 137.066  74.449  0.00  0.00    +0.000 NA
ATOM     35  C   UNL     1      97.067 137.202  73.149  0.00  0.00    +0.000 A 
ATOM     36  C   UNL     1      97.962 136.836  72.158  0.00  0.00    +0.000 A 
ENDBRANCH  30  31
ENDBRANCH  18  26
BRANCH   1  37
ATOM     37  C   UNL     1      91.036 133.491  73.964  0.00  0.00    +0.000 C 
ATOM     38  C   UNL     1      91.124 132.485  75.134  0.00  0.00    +0.000 C 
BRANCH  37  40
ATOM     39  C   UNL     1      88.977 131.929  73.466  0.00  0.00    +0.000 C 
ATOM     40  C   UNL     1      89.572 133.331  73.394  0.00  0.00    +0.000 C 
ATOM     41  C   UNL     1      88.549 134.420  73.796  0.00  0.00    +0.000 C 
ENDBRANCH  37  40
ENDBRANCH   1  37
BRANCH  25  42
ATOM     42  C   UNL     1      92.485 131.031  72.050  0.00  0.00    +0.000 C 
ATOM     43  O   UNL     1      91.943 130.031  72.502  0.00  0.00    +0.000 OA
BRANCH  42  44
ATOM     44  O   UNL     1      92.810 131.056  70.750  0.00  0.00    +0.000 OA
ATOM     45  H   UNL     1      92.597 131.979  70.493  0.00  0.00    +0.000 HD
ENDBRANCH  42  44
ENDBRANCH  25  42
BRANCH  19  46
ATOM     46  O   UNL     1     102.722 132.811  73.081  0.00  0.00    +0.000 OA
BRANCH  46  47
ATOM     47  C   UNL     1     103.602 133.922  73.139  0.00  0.00    +0.000 C 
BRANCH  47  48
ATOM     48  C   UNL     1     104.843 133.706  72.258  0.00  0.00    +0.000 C 
ATOM     49  C   UNL     1     104.564 132.375  71.524  0.00  0.00    +0.000 C 
BRANCH  48  50
ATOM     50  C   UNL     1     105.127 134.926  71.290  0.00  0.00    +0.000 C 
ATOM     51  C   UNL     1     106.614 135.333  71.358  0.00  0.00    +0.000 C 
ATOM     52  C   UNL     1     104.803 134.567  69.818  0.00  0.00    +0.000 C 
ATOM     53  C   UNL     1     104.296 136.186  71.632  0.00  0.00    +0.000 C 
ENDBRANCH  48  50
BRANCH  48  54
ATOM     54  N   UNL     1     105.966 133.449  73.183  0.00  0.00    +0.000 NA
ATOM     55  H   UNL     1     106.803 133.192  72.695  0.00  0.00    +0.000 HD
ATOM     56  H   UNL     1     106.168 134.321  73.699  0.00  0.00    +0.000 HD
ENDBRANCH  48  54
ENDBRANCH  47  48
ENDBRANCH  46  47
ENDBRANCH  19  46
TORSDOF 11
ENDMDL
