MODEL 1
REMARK VINA RESULT:     0.000      0.000      0.000
REMARK INTER + INTRA:          -2.943
REMARK INTER:                   0.000
REMARK INTRA:                  -2.943
REMARK UNBOUND:                -2.943
REMARK  Name = 
REMARK  22 active torsions:
REMARK  status: ('A' for Active; 'I' for Inactive)
REMARK    1  A    between atoms: C_1  and  C_2
REMARK    2  A    between atoms: C_2  and  C_3
REMARK    3  A    between atoms: C_2  and  C_6
REMARK    4  A    between atoms: C_3  and  C_4
REMARK    5  A    between atoms: C_3  and  C_5
REMARK    6  A    between atoms: C_6  and  C_50
REMARK    7  A    between atoms: C_9  and  C_49
REMARK    8  A    between atoms: C_14  and  C_48
REMARK    9  A    between atoms: C_17  and  O_47
REMARK   10  A    between atoms: C_22  and  C_27
REMARK   11  A    between atoms: C_23  and  C_24
REMARK   12  A    between atoms: C_24  and  O_26
REMARK   13  A    between atoms: C_29  and  O_43
REMARK   14  A    between atoms: C_30  and  O_31
REMARK   15  A    between atoms: O_31  and  C_32
REMARK   16  A    between atoms: C_33  and  O_42
REMARK   17  A    between atoms: C_34  and  O_41
REMARK   18  A    between atoms: C_35  and  O_40
REMARK   19  A    between atoms: C_36  and  C_38
REMARK   20  A    between atoms: C_38  and  O_39
REMARK   21  A    between atoms: O_43  and  C_44
REMARK   22  A    between atoms: C_44  and  C_46
REMARK                            x       y       z     vdW  Elec       q    Type
REMARK                         _______ _______ _______ _____ _____    ______ ____
ROOT
ATOM      1  C   UNL     1       2.324   6.376  -5.112  0.00  0.00    -0.016 C 
ATOM      2  C   UNL     1       3.007   5.583  -3.943  0.00  0.00    +0.008 C 
ATOM      3  C   UNL     1       2.559   4.189  -3.584  0.00  0.00    +0.008 C 
ATOM      4  C   UNL     1       2.027   3.338  -4.748  0.00  0.00    -0.019 C 
ATOM      5  C   UNL     1       2.706   1.941  -4.765  0.00  0.00    +0.022 C 
ATOM      6  C   UNL     1       2.930   1.243  -3.420  0.00  0.00    +0.009 C 
ATOM      7  C   UNL     1       3.681  -0.027  -3.727  0.00  0.00    +0.006 C 
ATOM      8  C   UNL     1       2.852  -0.981  -4.590  0.00  0.00    +0.015 C 
ATOM      9  C   UNL     1       2.297  -2.204  -3.856  0.00  0.00    +0.025 C 
ATOM     10  C   UNL     1       1.044  -1.840  -3.048  0.00  0.00    +0.172 C 
ATOM     11  O   UNL     1      -0.008  -1.507  -3.934  0.00  0.00    -0.350 OA
ATOM     12  C   UNL     1       0.288  -0.329  -4.655  0.00  0.00    +0.257 C 
ATOM     13  C   UNL     1       1.676  -0.351  -5.413  0.00  0.00    +0.050 C 
ATOM     14  C   UNL     1       2.022   1.070  -5.808  0.00  0.00    -0.059 C 
ATOM     15  C   UNL     1       1.568   1.617  -6.953  0.00  0.00    -0.026 C 
ATOM     16  C   UNL     1       1.614   3.072  -7.262  0.00  0.00    +0.035 C 
ATOM     17  C   UNL     1       2.327   3.969  -6.198  0.00  0.00    -0.009 C 
ATOM     18  C   UNL     1       1.807   5.454  -6.297  0.00  0.00    +0.110 C 
ATOM     19  C   UNL     1       3.845   3.951  -6.578  0.00  0.00    +0.013 C 
ATOM     20  C   UNL     1       1.565  -1.248  -6.655  0.00  0.00    +0.063 C 
ATOM     21  C   UNL     1       1.337  -2.703  -6.305  0.00  0.00    +0.207 C 
ATOM     22  C   UNL     1       1.981  -3.225  -4.977  0.00  0.00    +0.170 C 
ATOM     23  C   UNL     1       3.315  -2.827  -2.875  0.00  0.00    +0.016 C 
ATOM     24  C   UNL     1       0.506   3.122  -4.436  0.00  0.00    +0.012 C 
ATOM     25  C   UNL     1       3.506   7.318  -5.544  0.00  0.00    +0.012 C 
ENDROOT
BRANCH   1  27
ATOM     26  C   UNL     1       1.272   7.641  -3.006  0.00  0.00    +0.008 C 
ATOM     27  C   UNL     1       1.110   7.244  -4.486  0.00  0.00    -0.005 C 
BRANCH  27  28
ATOM     28  C   UNL     1      -0.352   6.715  -4.697  0.00  0.00    -0.014 C 
ATOM     29  C   UNL     1      -1.154   6.335  -3.439  0.00  0.00    +0.007 C 
ATOM     30  C   UNL     1      -1.193   7.756  -5.453  0.00  0.00    +0.007 C 
ENDBRANCH  27  28
ENDBRANCH   1  27
BRANCH  18  31
ATOM     31  C   UNL     1       1.876   5.976  -7.787  0.00  0.00    +0.309 C 
ATOM     32  O   UNL     1       2.906   6.018  -8.459  0.00  0.00    -0.251 OA
BRANCH  31  33
ATOM     33  O   UNL     1       0.732   6.307  -8.401  0.00  0.00    -0.480 OA
ATOM     34  H   UNL     1       0.025   5.656  -8.389  0.00  0.00    +0.295 HD
ENDBRANCH  31  33
ENDBRANCH  18  31
BRANCH  12  35
ATOM     35  O   UNL     1      -0.798  -0.186  -5.559  0.00  0.00    -0.366 OA
ATOM     36  H   UNL     1      -1.204   0.658  -5.284  0.00  0.00    +0.213 HD
ENDBRANCH  12  35
BRANCH  22  37
ATOM     37  O   UNL     1       1.175  -4.231  -4.367  0.00  0.00    -0.341 OA
BRANCH  37  38
ATOM     38  C   UNL     1       0.134  -4.750  -5.169  0.00  0.00    +0.282 C 
ATOM     39  C   UNL     1       0.410  -6.222  -5.497  0.00  0.00    +0.201 C 
ATOM     40  C   UNL     1      -0.904  -7.004  -5.583  0.00  0.00    +0.179 C 
ATOM     41  C   UNL     1      -2.073  -6.114  -6.072  0.00  0.00    +0.177 C 
ATOM     42  C   UNL     1      -2.170  -4.761  -5.331  0.00  0.00    +0.178 C 
ATOM     43  O   UNL     1      -1.065  -4.587  -4.432  0.00  0.00    -0.341 OA
BRANCH  41  44
ATOM     44  O   UNL     1      -1.865  -5.793  -7.465  0.00  0.00    -0.386 OA
ATOM     45  H   UNL     1      -2.678  -6.009  -7.960  0.00  0.00    +0.210 HD
ENDBRANCH  41  44
BRANCH  40  46
ATOM     46  O   UNL     1      -1.209  -7.616  -4.328  0.00  0.00    -0.386 OA
ATOM     47  H   UNL     1      -0.723  -8.462  -4.302  0.00  0.00    +0.210 HD
ENDBRANCH  40  46
BRANCH  39  48
ATOM     48  O   UNL     1       1.105  -6.397  -6.761  0.00  0.00    -0.384 OA
ATOM     49  H   UNL     1       0.454  -6.461  -7.471  0.00  0.00    +0.210 HD
ENDBRANCH  39  48
BRANCH  42  50
ATOM     50  C   UNL     1      -3.444  -4.570  -4.512  0.00  0.00    +0.190 C 
BRANCH  50  51
ATOM     51  O   UNL     1      -3.561  -5.646  -3.572  0.00  0.00    -0.392 OA
ATOM     52  H   UNL     1      -3.950  -6.392  -4.075  0.00  0.00    +0.210 HD
ENDBRANCH  50  51
ENDBRANCH  42  50
ENDBRANCH  37  38
ENDBRANCH  22  37
BRANCH  21  53
ATOM     53  O   UNL     1       1.977  -3.473  -7.379  0.00  0.00    -0.459 OA
BRANCH  53  54
ATOM     54  C   UNL     1       1.283  -3.649  -8.534  0.00  0.00    +0.304 C 
ATOM     55  O   UNL     1       0.138  -4.072  -8.614  0.00  0.00    -0.251 OA
ATOM     56  C   UNL     1       2.098  -3.188  -9.708  0.00  0.00    +0.136 C 
ENDBRANCH  53  54
ENDBRANCH  21  53
TORSDOF 14
ENDMDL
MODEL 2
REMARK VINA RESULT:     0.001      4.732     10.629
REMARK INTER + INTRA:          -2.942
REMARK INTER:                   0.000
REMARK INTRA:                  -2.942
REMARK UNBOUND:                -2.943
REMARK  Name = 
REMARK  22 active torsions:
REMARK  status: ('A' for Active; 'I' for Inactive)
REMARK    1  A    between atoms: C_1  and  C_2
REMARK    2  A    between atoms: C_2  and  C_3
REMARK    3  A    between atoms: C_2  and  C_6
REMARK    4  A    between atoms: C_3  and  C_4
REMARK    5  A    between atoms: C_3  and  C_5
REMARK    6  A    between atoms: C_6  and  C_50
REMARK    7  A    between atoms: C_9  and  C_49
REMARK    8  A    between atoms: C_14  and  C_48
REMARK    9  A    between atoms: C_17  and  O_47
REMARK   10  A    between atoms: C_22  and  C_27
REMARK   11  A    between atoms: C_23  and  C_24
REMARK   12  A    between atoms: C_24  and  O_26
REMARK   13  A    between atoms: C_29  and  O_43
REMARK   14  A    between atoms: C_30  and  O_31
REMARK   15  A    between atoms: O_31  and  C_32
REMARK   16  A    between atoms: C_33  and  O_42
REMARK   17  A    between atoms: C_34  and  O_41
REMARK   18  A    between atoms: C_35  and  O_40
REMARK   19  A    between atoms: C_36  and  C_38
REMARK   20  A    between atoms: C_38  and  O_39
REMARK   21  A    between atoms: O_43  and  C_44
REMARK   22  A    between atoms: C_44  and  C_46
REMARK                            x       y       z     vdW  Elec       q    Type
REMARK                         _______ _______ _______ _____ _____    ______ ____
ROOT
ATOM      1  C   UNL     1      -4.197  -4.618   1.377  0.00  0.00    -0.016 C 
ATOM      2  C   UNL     1      -3.297  -5.204   0.234  0.00  0.00    +0.008 C 
ATOM      3  C   UNL     1      -2.538  -4.297  -0.700  0.00  0.00    +0.008 C 
ATOM      4  C   UNL     1      -2.071  -2.961  -0.100  0.00  0.00    -0.019 C 
ATOM      5  C   UNL     1      -0.565  -2.721  -0.395  0.00  0.00    +0.022 C 
ATOM      6  C   UNL     1      -0.044  -3.094  -1.786  0.00  0.00    +0.009 C 
ATOM      7  C   UNL     1       1.443  -2.849  -1.757  0.00  0.00    +0.006 C 
ATOM      8  C   UNL     1       1.769  -1.370  -1.542  0.00  0.00    +0.015 C 
ATOM      9  C   UNL     1       2.286  -0.633  -2.781  0.00  0.00    +0.025 C 
ATOM     10  C   UNL     1       1.129  -0.247  -3.715  0.00  0.00    +0.172 C 
ATOM     11  O   UNL     1       0.323   0.731  -3.085  0.00  0.00    -0.350 OA
ATOM     12  C   UNL     1      -0.321   0.204  -1.945  0.00  0.00    +0.257 C 
ATOM     13  C   UNL     1       0.648  -0.483  -0.900  0.00  0.00    +0.050 C 
ATOM     14  C   UNL     1      -0.191  -1.314   0.049  0.00  0.00    -0.059 C 
ATOM     15  C   UNL     1      -0.762  -0.777   1.146  0.00  0.00    -0.026 C 
ATOM     16  C   UNL     1      -1.824  -1.443   1.948  0.00  0.00    +0.035 C 
ATOM     17  C   UNL     1      -2.201  -2.893   1.502  0.00  0.00    -0.009 C 
ATOM     18  C   UNL     1      -3.663  -3.248   1.975  0.00  0.00    +0.110 C 
ATOM     19  C   UNL     1      -1.200  -3.838   2.245  0.00  0.00    +0.013 C 
ATOM     20  C   UNL     1       1.421   0.600  -0.132  0.00  0.00    +0.063 C 
ATOM     21  C   UNL     1       2.366   1.382  -1.021  0.00  0.00    +0.207 C 
ATOM     22  C   UNL     1       3.013   0.615  -2.221  0.00  0.00    +0.170 C 
ATOM     23  C   UNL     1       3.284  -1.475  -3.606  0.00  0.00    +0.016 C 
ATOM     24  C   UNL     1      -2.885  -1.861  -0.865  0.00  0.00    +0.012 C 
ATOM     25  C   UNL     1      -4.141  -5.798   2.414  0.00  0.00    +0.012 C 
ENDROOT
BRANCH   1  27
ATOM     26  C   UNL     1      -6.079  -5.407  -0.349  0.00  0.00    +0.008 C 
ATOM     27  C   UNL     1      -5.697  -4.447   0.796  0.00  0.00    -0.005 C 
BRANCH  27  28
ATOM     28  C   UNL     1      -6.171  -3.004   0.406  0.00  0.00    -0.014 C 
ATOM     29  C   UNL     1      -6.523  -2.750  -1.072  0.00  0.00    +0.007 C 
ATOM     30  C   UNL     1      -7.411  -2.609   1.224  0.00  0.00    +0.007 C 
ENDBRANCH  27  28
ENDBRANCH   1  27
BRANCH  18  31
ATOM     31  C   UNL     1      -3.849  -2.935   3.513  0.00  0.00    +0.309 C 
ATOM     32  O   UNL     1      -3.161  -3.427   4.408  0.00  0.00    -0.251 OA
BRANCH  31  33
ATOM     33  O   UNL     1      -4.745  -2.005   3.872  0.00  0.00    -0.480 OA
ATOM     34  H   UNL     1      -5.111  -2.070   4.758  0.00  0.00    +0.295 HD
ENDBRANCH  31  33
ENDBRANCH  18  31
BRANCH  12  35
ATOM     35  O   UNL     1      -0.999   1.314  -1.376  0.00  0.00    -0.366 OA
ATOM     36  H   UNL     1      -1.724   1.477  -2.009  0.00  0.00    +0.213 HD
ENDBRANCH  12  35
BRANCH  22  37
ATOM     37  O   UNL     1       3.220   1.475  -3.339  0.00  0.00    -0.341 OA
BRANCH  37  38
ATOM     38  C   UNL     1       3.070   2.856  -3.084  0.00  0.00    +0.282 C 
ATOM     39  C   UNL     1       4.421   3.565  -3.233  0.00  0.00    +0.201 C 
ATOM     40  C   UNL     1       4.223   4.980  -3.787  0.00  0.00    +0.179 C 
ATOM     41  C   UNL     1       2.865   5.583  -3.350  0.00  0.00    +0.177 C 
ATOM     42  C   UNL     1       1.668   4.628  -3.563  0.00  0.00    +0.178 C 
ATOM     43  O   UNL     1       2.113   3.339  -4.010  0.00  0.00    -0.341 OA
BRANCH  41  44
ATOM     44  O   UNL     1       2.909   5.857  -1.932  0.00  0.00    -0.386 OA
ATOM     45  H   UNL     1       3.640   6.479  -1.757  0.00  0.00    +0.210 HD
ENDBRANCH  41  44
BRANCH  40  46
ATOM     46  O   UNL     1       4.359   4.989  -5.209  0.00  0.00    -0.386 OA
ATOM     47  H   UNL     1       4.801   5.827  -5.443  0.00  0.00    +0.210 HD
ENDBRANCH  40  46
BRANCH  39  48
ATOM     48  O   UNL     1       5.137   3.686  -1.975  0.00  0.00    -0.384 OA
ATOM     49  H   UNL     1       4.959   4.555  -1.595  0.00  0.00    +0.210 HD
ENDBRANCH  39  48
BRANCH  42  50
ATOM     50  C   UNL     1       0.633   5.116  -4.574  0.00  0.00    +0.190 C 
BRANCH  50  51
ATOM     51  O   UNL     1       1.283   5.364  -5.827  0.00  0.00    -0.392 OA
ATOM     52  H   UNL     1       0.901   6.203  -6.158  0.00  0.00    +0.210 HD
ENDBRANCH  50  51
ENDBRANCH  42  50
ENDBRANCH  37  38
ENDBRANCH  22  37
BRANCH  21  53
ATOM     53  O   UNL     1       3.486   1.775  -0.157  0.00  0.00    -0.459 OA
BRANCH  53  54
ATOM     54  C   UNL     1       3.329   2.871   0.629  0.00  0.00    +0.304 C 
ATOM     55  O   UNL     1       2.956   3.971   0.243  0.00  0.00    -0.251 OA
ATOM     56  C   UNL     1       3.616   2.531   2.064  0.00  0.00    +0.136 C 
ENDBRANCH  53  54
ENDBRANCH  21  53
TORSDOF 14
ENDMDL
MODEL 3
REMARK VINA RESULT:     0.001      6.813      9.495
REMARK INTER + INTRA:          -2.942
REMARK INTER:                   0.000
REMARK INTRA:                  -2.942
REMARK UNBOUND:                -2.943
REMARK  Name = 
REMARK  22 active torsions:
REMARK  status: ('A' for Active; 'I' for Inactive)
REMARK    1  A    between atoms: C_1  and  C_2
REMARK    2  A    between atoms: C_2  and  C_3
REMARK    3  A    between atoms: C_2  and  C_6
REMARK    4  A    between atoms: C_3  and  C_4
REMARK    5  A    between atoms: C_3  and  C_5
REMARK    6  A    between atoms: C_6  and  C_50
REMARK    7  A    between atoms: C_9  and  C_49
REMARK    8  A    between atoms: C_14  and  C_48
REMARK    9  A    between atoms: C_17  and  O_47
REMARK   10  A    between atoms: C_22  and  C_27
REMARK   11  A    between atoms: C_23  and  C_24
REMARK   12  A    between atoms: C_24  and  O_26
REMARK   13  A    between atoms: C_29  and  O_43
REMARK   14  A    between atoms: C_30  and  O_31
REMARK   15  A    between atoms: O_31  and  C_32
REMARK   16  A    between atoms: C_33  and  O_42
REMARK   17  A    between atoms: C_34  and  O_41
REMARK   18  A    between atoms: C_35  and  O_40
REMARK   19  A    between atoms: C_36  and  C_38
REMARK   20  A    between atoms: C_38  and  O_39
REMARK   21  A    between atoms: O_43  and  C_44
REMARK   22  A    between atoms: C_44  and  C_46
REMARK                            x       y       z     vdW  Elec       q    Type
REMARK                         _______ _______ _______ _____ _____    ______ ____
ROOT
ATOM      1  C   UNL     1       6.986   5.145   4.361  0.00  0.00    -0.016 C 
ATOM      2  C   UNL     1       8.316   5.363   3.557  0.00  0.00    +0.008 C 
ATOM      3  C   UNL     1       8.638   4.524   2.347  0.00  0.00    +0.008 C 
ATOM      4  C   UNL     1       7.430   4.045   1.526  0.00  0.00    -0.019 C 
ATOM      5  C   UNL     1       7.635   4.350   0.016  0.00  0.00    +0.022 C 
ATOM      6  C   UNL     1       9.030   4.120  -0.573  0.00  0.00    +0.009 C 
ATOM      7  C   UNL     1       8.961   4.582  -2.006  0.00  0.00    +0.006 C 
ATOM      8  C   UNL     1       7.987   3.736  -2.828  0.00  0.00    +0.015 C 
ATOM      9  C   UNL     1       8.642   2.762  -3.811  0.00  0.00    +0.025 C 
ATOM     10  C   UNL     1       9.135   1.500  -3.089  0.00  0.00    +0.172 C 
ATOM     11  O   UNL     1       8.023   0.763  -2.616  0.00  0.00    -0.350 OA
ATOM     12  C   UNL     1       7.326   1.477  -1.618  0.00  0.00    +0.257 C 
ATOM     13  C   UNL     1       6.894   2.941  -2.033  0.00  0.00    +0.050 C 
ATOM     14  C   UNL     1       6.513   3.698  -0.778  0.00  0.00    -0.059 C 
ATOM     15  C   UNL     1       5.270   3.632  -0.262  0.00  0.00    -0.026 C 
ATOM     16  C   UNL     1       4.904   4.095   1.105  0.00  0.00    +0.035 C 
ATOM     17  C   UNL     1       6.052   4.777   1.918  0.00  0.00    -0.009 C 
ATOM     18  C   UNL     1       5.765   4.668   3.465  0.00  0.00    +0.110 C 
ATOM     19  C   UNL     1       6.017   6.288   1.515  0.00  0.00    +0.013 C 
ATOM     20  C   UNL     1       5.706   2.866  -3.004  0.00  0.00    +0.063 C 
ATOM     21  C   UNL     1       6.071   2.222  -4.325  0.00  0.00    +0.207 C 
ATOM     22  C   UNL     1       7.532   2.437  -4.841  0.00  0.00    +0.170 C 
ATOM     23  C   UNL     1       9.854   3.377  -4.546  0.00  0.00    +0.016 C 
ATOM     24  C   UNL     1       7.410   2.487   1.695  0.00  0.00    +0.012 C 
ATOM     25  C   UNL     1       6.778   6.585   4.958  0.00  0.00    +0.012 C 
ENDROOT
BRANCH   1  27
ATOM     26  C   UNL     1       8.742   4.034   6.042  0.00  0.00    +0.008 C 
ATOM     27  C   UNL     1       7.284   4.081   5.543  0.00  0.00    -0.005 C 
BRANCH  27  28
ATOM     28  C   UNL     1       6.784   2.608   5.343  0.00  0.00    -0.014 C 
ATOM     29  C   UNL     1       7.853   1.500   5.289  0.00  0.00    +0.007 C 
ATOM     30  C   UNL     1       5.808   2.218   6.466  0.00  0.00    +0.007 C 
ENDBRANCH  27  28
ENDBRANCH   1  27
BRANCH  18  31
ATOM     31  C   UNL     1       4.302   5.161   3.802  0.00  0.00    +0.309 C 
ATOM     32  O   UNL     1       3.871   6.283   3.536  0.00  0.00    -0.251 OA
BRANCH  31  33
ATOM     33  O   UNL     1       3.436   4.282   4.324  0.00  0.00    -0.480 OA
ATOM     34  H   UNL     1       2.602   4.630   4.651  0.00  0.00    +0.295 HD
ENDBRANCH  31  33
ENDBRANCH  18  31
BRANCH  12  35
ATOM     35  O   UNL     1       6.199   0.665  -1.323  0.00  0.00    -0.366 OA
ATOM     36  H   UNL     1       5.627   0.790  -2.104  0.00  0.00    +0.213 HD
ENDBRANCH  12  35
BRANCH  22  37
ATOM     37  O   UNL     1       8.001   1.304  -5.569  0.00  0.00    -0.341 OA
BRANCH  37  38
ATOM     38  C   UNL     1       7.017   0.351  -5.915  0.00  0.00    +0.282 C 
ATOM     39  C   UNL     1       6.832   0.319  -7.436  0.00  0.00    +0.201 C 
ATOM     40  C   UNL     1       6.500  -1.102  -7.903  0.00  0.00    +0.179 C 
ATOM     41  C   UNL     1       5.722  -1.895  -6.825  0.00  0.00    +0.177 C 
ATOM     42  C   UNL     1       6.354  -1.805  -5.416  0.00  0.00    +0.178 C 
ATOM     43  O   UNL     1       7.464  -0.895  -5.409  0.00  0.00    -0.341 OA
BRANCH  41  44
ATOM     44  O   UNL     1       4.394  -1.339  -6.702  0.00  0.00    -0.386 OA
ATOM     45  H   UNL     1       4.142  -0.940  -7.557  0.00  0.00    +0.210 HD
ENDBRANCH  41  44
BRANCH  40  46
ATOM     46  O   UNL     1       7.686  -1.793  -8.299  0.00  0.00    -0.386 OA
ATOM     47  H   UNL     1       7.461  -2.303  -9.099  0.00  0.00    +0.210 HD
ENDBRANCH  40  46
BRANCH  39  48
ATOM     48  O   UNL     1       5.763   1.189  -7.892  0.00  0.00    -0.384 OA
ATOM     49  H   UNL     1       5.730   1.168  -8.857  0.00  0.00    +0.210 HD
ENDBRANCH  39  48
BRANCH  42  50
ATOM     50  C   UNL     1       6.862  -3.131  -4.858  0.00  0.00    +0.190 C 
BRANCH  50  51
ATOM     51  O   UNL     1       7.808  -3.694  -5.777  0.00  0.00    -0.392 OA
ATOM     52  H   UNL     1       7.318  -3.812  -6.617  0.00  0.00    +0.210 HD
ENDBRANCH  50  51
ENDBRANCH  42  50
ENDBRANCH  37  38
ENDBRANCH  22  37
BRANCH  21  53
ATOM     53  O   UNL     1       5.205   2.857  -5.326  0.00  0.00    -0.459 OA
BRANCH  53  54
ATOM     54  C   UNL     1       3.936   2.389  -5.456  0.00  0.00    +0.304 C 
ATOM     55  O   UNL     1       3.628   1.215  -5.612  0.00  0.00    -0.251 OA
ATOM     56  C   UNL     1       2.948   3.511  -5.318  0.00  0.00    +0.136 C 
ENDBRANCH  53  54
ENDBRANCH  21  53
TORSDOF 14
ENDMDL
MODEL 4
REMARK VINA RESULT:     0.001      6.563      8.950
REMARK INTER + INTRA:          -2.942
REMARK INTER:                   0.000
REMARK INTRA:                  -2.942
REMARK UNBOUND:                -2.943
REMARK  Name = 
REMARK  22 active torsions:
REMARK  status: ('A' for Active; 'I' for Inactive)
REMARK    1  A    between atoms: C_1  and  C_2
REMARK    2  A    between atoms: C_2  and  C_3
REMARK    3  A    between atoms: C_2  and  C_6
REMARK    4  A    between atoms: C_3  and  C_4
REMARK    5  A    between atoms: C_3  and  C_5
REMARK    6  A    between atoms: C_6  and  C_50
REMARK    7  A    between atoms: C_9  and  C_49
REMARK    8  A    between atoms: C_14  and  C_48
REMARK    9  A    between atoms: C_17  and  O_47
REMARK   10  A    between atoms: C_22  and  C_27
REMARK   11  A    between atoms: C_23  and  C_24
REMARK   12  A    between atoms: C_24  and  O_26
REMARK   13  A    between atoms: C_29  and  O_43
REMARK   14  A    between atoms: C_30  and  O_31
REMARK   15  A    between atoms: O_31  and  C_32
REMARK   16  A    between atoms: C_33  and  O_42
REMARK   17  A    between atoms: C_34  and  O_41
REMARK   18  A    between atoms: C_35  and  O_40
REMARK   19  A    between atoms: C_36  and  C_38
REMARK   20  A    between atoms: C_38  and  O_39
REMARK   21  A    between atoms: O_43  and  C_44
REMARK   22  A    between atoms: C_44  and  C_46
REMARK                            x       y       z     vdW  Elec       q    Type
REMARK                         _______ _______ _______ _____ _____    ______ ____
ROOT
ATOM      1  C   UNL     1       2.002   4.342  -0.796  0.00  0.00    -0.016 C 
ATOM      2  C   UNL     1       0.892   3.576  -1.600  0.00  0.00    +0.008 C 
ATOM      3  C   UNL     1       0.677   2.097  -1.411  0.00  0.00    +0.008 C 
ATOM      4  C   UNL     1       0.983   1.552  -0.006  0.00  0.00    -0.019 C 
ATOM      5  C   UNL     1      -0.195   0.683   0.516  0.00  0.00    +0.022 C 
ATOM      6  C   UNL     1      -0.878  -0.261  -0.479  0.00  0.00    +0.009 C 
ATOM      7  C   UNL     1      -2.026  -0.894   0.265  0.00  0.00    +0.006 C 
ATOM      8  C   UNL     1      -1.539  -1.755   1.432  0.00  0.00    +0.015 C 
ATOM      9  C   UNL     1      -1.644  -3.266   1.212  0.00  0.00    +0.025 C 
ATOM     10  C   UNL     1      -0.483  -3.778   0.345  0.00  0.00    +0.172 C 
ATOM     11  O   UNL     1       0.730  -3.652   1.062  0.00  0.00    -0.350 OA
ATOM     12  C   UNL     1       1.048  -2.295   1.291  0.00  0.00    +0.257 C 
ATOM     13  C   UNL     1      -0.101  -1.456   1.981  0.00  0.00    +0.050 C 
ATOM     14  C   UNL     1       0.221   0.015   1.818  0.00  0.00    -0.059 C 
ATOM     15  C   UNL     1       1.021   0.665   2.686  0.00  0.00    -0.026 C 
ATOM     16  C   UNL     1       1.616   2.006   2.434  0.00  0.00    +0.035 C 
ATOM     17  C   UNL     1       1.180   2.701   1.102  0.00  0.00    -0.009 C 
ATOM     18  C   UNL     1       2.267   3.751   0.653  0.00  0.00    +0.110 C 
ATOM     19  C   UNL     1      -0.139   3.470   1.438  0.00  0.00    +0.013 C 
ATOM     20  C   UNL     1      -0.184  -1.831   3.469  0.00  0.00    +0.063 C 
ATOM     21  C   UNL     1      -0.620  -3.265   3.686  0.00  0.00    +0.207 C 
ATOM     22  C   UNL     1      -1.608  -3.875   2.636  0.00  0.00    +0.170 C 
ATOM     23  C   UNL     1      -2.958  -3.681   0.515  0.00  0.00    +0.016 C 
ATOM     24  C   UNL     1       2.220   0.608  -0.192  0.00  0.00    +0.012 C 
ATOM     25  C   UNL     1       1.381   5.786  -0.762  0.00  0.00    +0.012 C 
ENDROOT
BRANCH   1  27
ATOM     26  C   UNL     1       3.155   4.228  -3.205  0.00  0.00    +0.008 C 
ATOM     27  C   UNL     1       3.357   4.330  -1.680  0.00  0.00    -0.005 C 
BRANCH  27  28
ATOM     28  C   UNL     1       4.492   3.329  -1.266  0.00  0.00    -0.014 C 
ATOM     29  C   UNL     1       4.877   2.238  -2.282  0.00  0.00    +0.007 C 
ATOM     30  C   UNL     1       5.785   4.093  -0.936  0.00  0.00    +0.007 C 
ENDBRANCH  27  28
ENDBRANCH   1  27
BRANCH  18  31
ATOM     31  C   UNL     1       2.636   4.723   1.843  0.00  0.00    +0.309 C 
ATOM     32  O   UNL     1       1.822   5.430   2.438  0.00  0.00    -0.251 OA
BRANCH  31  33
ATOM     33  O   UNL     1       3.893   4.717   2.307  0.00  0.00    -0.480 OA
ATOM     34  H   UNL     1       4.049   5.141   3.155  0.00  0.00    +0.295 HD
ENDBRANCH  31  33
ENDBRANCH  18  31
BRANCH  12  35
ATOM     35  O   UNL     1       2.218  -2.337   2.094  0.00  0.00    -0.366 OA
ATOM     36  H   UNL     1       1.944  -2.884   2.855  0.00  0.00    +0.213 HD
ENDBRANCH  12  35
BRANCH  22  37
ATOM     37  O   UNL     1      -1.379  -5.270   2.454  0.00  0.00    -0.341 OA
BRANCH  37  38
ATOM     38  C   UNL     1      -0.533  -5.880   3.406  0.00  0.00    +0.282 C 
ATOM     39  C   UNL     1      -1.332  -6.878   4.252  0.00  0.00    +0.201 C 
ATOM     40  C   UNL     1      -0.453  -8.071   4.642  0.00  0.00    +0.179 C 
ATOM     41  C   UNL     1       1.035  -7.666   4.784  0.00  0.00    +0.177 C 
ATOM     42  C   UNL     1       1.564  -6.830   3.596  0.00  0.00    +0.178 C 
ATOM     43  O   UNL     1       0.506  -6.513   2.680  0.00  0.00    -0.341 OA
BRANCH  41  44
ATOM     44  O   UNL     1       1.184  -6.834   5.956  0.00  0.00    -0.386 OA
ATOM     45  H   UNL     1       1.835  -7.249   6.552  0.00  0.00    +0.210 HD
ENDBRANCH  41  44
BRANCH  40  46
ATOM     46  O   UNL     1      -0.611  -9.140   3.708  0.00  0.00    -0.386 OA
ATOM     47  H   UNL     1      -1.352  -9.688   4.030  0.00  0.00    +0.210 HD
ENDBRANCH  40  46
BRANCH  39  48
ATOM     48  O   UNL     1      -1.843  -6.294   5.480  0.00  0.00    -0.384 OA
ATOM     49  H   UNL     1      -2.702  -5.891   5.302  0.00  0.00    +0.210 HD
ENDBRANCH  39  48
BRANCH  42  50
ATOM     50  C   UNL     1       2.669  -7.500   2.784  0.00  0.00    +0.190 C 
BRANCH  50  51
ATOM     51  O   UNL     1       2.199  -8.769   2.311  0.00  0.00    -0.392 OA
ATOM     52  H   UNL     1       2.407  -9.407   3.024  0.00  0.00    +0.210 HD
ENDBRANCH  50  51
ENDBRANCH  42  50
ENDBRANCH  37  38
ENDBRANCH  22  37
BRANCH  21  53
ATOM     53  O   UNL     1      -1.352  -3.267   4.958  0.00  0.00    -0.459 OA
BRANCH  53  54
ATOM     54  C   UNL     1      -0.629  -3.320   6.107  0.00  0.00    +0.304 C 
ATOM     55  O   UNL     1       0.244  -4.140   6.355  0.00  0.00    -0.251 OA
ATOM     56  C   UNL     1      -1.006  -2.185   7.016  0.00  0.00    +0.136 C 
ENDBRANCH  53  54
ENDBRANCH  21  53
TORSDOF 14
ENDMDL
MODEL 5
REMARK VINA RESULT:     0.001      4.746     11.265
REMARK INTER + INTRA:          -2.942
REMARK INTER:                   0.000
REMARK INTRA:                  -2.942
REMARK UNBOUND:                -2.943
REMARK  Name = 
REMARK  22 active torsions:
REMARK  status: ('A' for Active; 'I' for Inactive)
REMARK    1  A    between atoms: C_1  and  C_2
REMARK    2  A    between atoms: C_2  and  C_3
REMARK    3  A    between atoms: C_2  and  C_6
REMARK    4  A    between atoms: C_3  and  C_4
REMARK    5  A    between atoms: C_3  and  C_5
REMARK    6  A    between atoms: C_6  and  C_50
REMARK    7  A    between atoms: C_9  and  C_49
REMARK    8  A    between atoms: C_14  and  C_48
REMARK    9  A    between atoms: C_17  and  O_47
REMARK   10  A    between atoms: C_22  and  C_27
REMARK   11  A    between atoms: C_23  and  C_24
REMARK   12  A    between atoms: C_24  and  O_26
REMARK   13  A    between atoms: C_29  and  O_43
REMARK   14  A    between atoms: C_30  and  O_31
REMARK   15  A    between atoms: O_31  and  C_32
REMARK   16  A    between atoms: C_33  and  O_42
REMARK   17  A    between atoms: C_34  and  O_41
REMARK   18  A    between atoms: C_35  and  O_40
REMARK   19  A    between atoms: C_36  and  C_38
REMARK   20  A    between atoms: C_38  and  O_39
REMARK   21  A    between atoms: O_43  and  C_44
REMARK   22  A    between atoms: C_44  and  C_46
REMARK                            x       y       z     vdW  Elec       q    Type
REMARK                         _______ _______ _______ _____ _____    ______ ____
ROOT
ATOM      1  C   UNL     1      -4.038  -7.727  -0.622  0.00  0.00    -0.016 C 
ATOM      2  C   UNL     1      -3.911  -6.461   0.296  0.00  0.00    +0.008 C 
ATOM      3  C   UNL     1      -3.488  -5.130  -0.270  0.00  0.00    +0.008 C 
ATOM      4  C   UNL     1      -3.902  -4.862  -1.726  0.00  0.00    -0.019 C 
ATOM      5  C   UNL     1      -4.584  -3.472  -1.858  0.00  0.00    +0.022 C 
ATOM      6  C   UNL     1      -3.983  -2.307  -1.066  0.00  0.00    +0.009 C 
ATOM      7  C   UNL     1      -4.889  -1.126  -1.304  0.00  0.00    +0.006 C 
ATOM      8  C   UNL     1      -4.896  -0.706  -2.775  0.00  0.00    +0.015 C 
ATOM      9  C   UNL     1      -4.136   0.587  -3.084  0.00  0.00    +0.025 C 
ATOM     10  C   UNL     1      -2.624   0.332  -3.160  0.00  0.00    +0.172 C 
ATOM     11  O   UNL     1      -2.338  -0.473  -4.289  0.00  0.00    -0.350 OA
ATOM     12  C   UNL     1      -2.894  -1.763  -4.147  0.00  0.00    +0.257 C 
ATOM     13  C   UNL     1      -4.442  -1.782  -3.822  0.00  0.00    +0.050 C 
ATOM     14  C   UNL     1      -4.807  -3.168  -3.332  0.00  0.00    -0.059 C 
ATOM     15  C   UNL     1      -5.121  -4.161  -4.187  0.00  0.00    -0.026 C 
ATOM     16  C   UNL     1      -5.197  -5.599  -3.810  0.00  0.00    +0.035 C 
ATOM     17  C   UNL     1      -4.980  -5.913  -2.294  0.00  0.00    -0.009 C 
ATOM     18  C   UNL     1      -4.485  -7.399  -2.109  0.00  0.00    +0.110 C 
ATOM     19  C   UNL     1      -6.388  -5.777  -1.627  0.00  0.00    +0.013 C 
ATOM     20  C   UNL     1      -5.235  -1.428  -5.089  0.00  0.00    +0.063 C 
ATOM     21  C   UNL     1      -4.993  -0.006  -5.551  0.00  0.00    +0.207 C 
ATOM     22  C   UNL     1      -4.707   1.062  -4.444  0.00  0.00    +0.170 C 
ATOM     23  C   UNL     1      -4.367   1.686  -2.024  0.00  0.00    +0.016 C 
ATOM     24  C   UNL     1      -2.559  -4.809  -2.532  0.00  0.00    +0.012 C 
ATOM     25  C   UNL     1      -5.120  -8.545   0.173  0.00  0.00    +0.012 C 
ENDROOT
BRANCH   1  27
ATOM     26  C   UNL     1      -1.768  -8.303   0.666  0.00  0.00    +0.008 C 
ATOM     27  C   UNL     1      -2.618  -8.502  -0.604  0.00  0.00    -0.005 C 
BRANCH  27  28
ATOM     28  C   UNL     1      -1.682  -8.343  -1.853  0.00  0.00    -0.014 C 
ATOM     29  C   UNL     1      -0.312  -7.676  -1.629  0.00  0.00    +0.007 C 
ATOM     30  C   UNL     1      -1.400  -9.714  -2.489  0.00  0.00    +0.007 C 
ENDBRANCH  27  28
ENDBRANCH   1  27
BRANCH  18  31
ATOM     31  C   UNL     1      -5.421  -8.405  -2.890  0.00  0.00    +0.309 C 
ATOM     32  O   UNL     1      -6.633  -8.511  -2.702  0.00  0.00    -0.251 OA
BRANCH  31  33
ATOM     33  O   UNL     1      -4.892  -9.127  -3.887  0.00  0.00    -0.480 OA
ATOM     34  H   UNL     1      -5.128  -8.874  -4.783  0.00  0.00    +0.295 HD
ENDBRANCH  31  33
ENDBRANCH  18  31
BRANCH  12  35
ATOM     35  O   UNL     1      -2.613  -2.406  -5.382  0.00  0.00    -0.366 OA
ATOM     36  H   UNL     1      -2.434  -1.659  -5.984  0.00  0.00    +0.213 HD
ENDBRANCH  12  35
BRANCH  22  37
ATOM     37  O   UNL     1      -3.810   2.068  -4.908  0.00  0.00    -0.341 OA
BRANCH  37  38
ATOM     38  C   UNL     1      -3.569   2.076  -6.301  0.00  0.00    +0.282 C 
ATOM     39  C   UNL     1      -4.145   3.353  -6.924  0.00  0.00    +0.201 C 
ATOM     40  C   UNL     1      -3.270   3.815  -8.094  0.00  0.00    +0.179 C 
ATOM     41  C   UNL     1      -2.584   2.624  -8.806  0.00  0.00    +0.177 C 
ATOM     42  C   UNL     1      -1.899   1.635  -7.835  0.00  0.00    +0.178 C 
ATOM     43  O   UNL     1      -2.165   1.990  -6.470  0.00  0.00    -0.341 OA
BRANCH  41  44
ATOM     44  O   UNL     1      -3.587   1.859  -9.511  0.00  0.00    -0.386 OA
ATOM     45  H   UNL     1      -3.144   1.315 -10.190  0.00  0.00    +0.210 HD
ENDBRANCH  41  44
BRANCH  40  46
ATOM     46  O   UNL     1      -2.311   4.779  -7.656  0.00  0.00    -0.386 OA
ATOM     47  H   UNL     1      -1.492   4.289  -7.452  0.00  0.00    +0.210 HD
ENDBRANCH  40  46
BRANCH  39  48
ATOM     48  O   UNL     1      -5.493   3.173  -7.433  0.00  0.00    -0.384 OA
ATOM     49  H   UNL     1      -5.464   2.587  -8.199  0.00  0.00    +0.210 HD
ENDBRANCH  39  48
BRANCH  42  50
ATOM     50  C   UNL     1      -0.382   1.541  -7.982  0.00  0.00    +0.190 C 
BRANCH  50  51
ATOM     51  O   UNL     1       0.186   2.848  -7.823  0.00  0.00    -0.392 OA
ATOM     52  H   UNL     1       0.491   2.889  -6.893  0.00  0.00    +0.210 HD
ENDBRANCH  50  51
ENDBRANCH  42  50
ENDBRANCH  37  38
ENDBRANCH  22  37
BRANCH  21  53
ATOM     53  O   UNL     1      -6.244   0.419  -6.192  0.00  0.00    -0.459 OA
BRANCH  53  54
ATOM     54  C   UNL     1      -6.456   0.044  -7.480  0.00  0.00    +0.304 C 
ATOM     55  O   UNL     1      -5.670   0.209  -8.403  0.00  0.00    -0.251 OA
ATOM     56  C   UNL     1      -7.774  -0.664  -7.608  0.00  0.00    +0.136 C 
ENDBRANCH  53  54
ENDBRANCH  21  53
TORSDOF 14
ENDMDL
MODEL 6
REMARK VINA RESULT:     0.001      7.217     10.798
REMARK INTER + INTRA:          -2.942
REMARK INTER:                   0.000
REMARK INTRA:                  -2.942
REMARK UNBOUND:                -2.943
REMARK  Name = 
REMARK  22 active torsions:
REMARK  status: ('A' for Active; 'I' for Inactive)
REMARK    1  A    between atoms: C_1  and  C_2
REMARK    2  A    between atoms: C_2  and  C_3
REMARK    3  A    between atoms: C_2  and  C_6
REMARK    4  A    between atoms: C_3  and  C_4
REMARK    5  A    between atoms: C_3  and  C_5
REMARK    6  A    between atoms: C_6  and  C_50
REMARK    7  A    between atoms: C_9  and  C_49
REMARK    8  A    between atoms: C_14  and  C_48
REMARK    9  A    between atoms: C_17  and  O_47
REMARK   10  A    between atoms: C_22  and  C_27
REMARK   11  A    between atoms: C_23  and  C_24
REMARK   12  A    between atoms: C_24  and  O_26
REMARK   13  A    between atoms: C_29  and  O_43
REMARK   14  A    between atoms: C_30  and  O_31
REMARK   15  A    between atoms: O_31  and  C_32
REMARK   16  A    between atoms: C_33  and  O_42
REMARK   17  A    between atoms: C_34  and  O_41
REMARK   18  A    between atoms: C_35  and  O_40
REMARK   19  A    between atoms: C_36  and  C_38
REMARK   20  A    between atoms: C_38  and  O_39
REMARK   21  A    between atoms: O_43  and  C_44
REMARK   22  A    between atoms: C_44  and  C_46
REMARK                            x       y       z     vdW  Elec       q    Type
REMARK                         _______ _______ _______ _____ _____    ______ ____
ROOT
ATOM      1  C   UNL     1      -3.459  -0.690  -0.079  0.00  0.00    -0.016 C 
ATOM      2  C   UNL     1      -3.775  -2.032   0.671  0.00  0.00    +0.008 C 
ATOM      3  C   UNL     1      -2.690  -3.037   0.956  0.00  0.00    +0.008 C 
ATOM      4  C   UNL     1      -1.286  -2.455   1.189  0.00  0.00    -0.019 C 
ATOM      5  C   UNL     1      -0.657  -3.036   2.486  0.00  0.00    +0.022 C 
ATOM      6  C   UNL     1      -0.864  -4.527   2.770  0.00  0.00    +0.009 C 
ATOM      7  C   UNL     1      -0.240  -4.787   4.117  0.00  0.00    +0.006 C 
ATOM      8  C   UNL     1       1.270  -4.544   4.098  0.00  0.00    +0.015 C 
ATOM      9  C   UNL     1       2.133  -5.808   4.132  0.00  0.00    +0.025 C 
ATOM     10  C   UNL     1       2.216  -6.455   2.742  0.00  0.00    +0.172 C 
ATOM     11  O   UNL     1       2.941  -5.608   1.871  0.00  0.00    -0.350 OA
ATOM     12  C   UNL     1       2.250  -4.399   1.643  0.00  0.00    +0.257 C 
ATOM     13  C   UNL     1       1.826  -3.625   2.956  0.00  0.00    +0.050 C 
ATOM     14  C   UNL     1       0.792  -2.583   2.580  0.00  0.00    -0.059 C 
ATOM     15  C   UNL     1       1.147  -1.359   2.143  0.00  0.00    -0.026 C 
ATOM     16  C   UNL     1       0.218  -0.402   1.483  0.00  0.00    +0.035 C 
ATOM     17  C   UNL     1      -1.275  -0.860   1.396  0.00  0.00    -0.009 C 
ATOM     18  C   UNL     1      -2.005  -0.122   0.208  0.00  0.00    +0.110 C 
ATOM     19  C   UNL     1      -1.936  -0.405   2.739  0.00  0.00    +0.013 C 
ATOM     20  C   UNL     1       3.063  -2.960   3.578  0.00  0.00    +0.063 C 
ATOM     21  C   UNL     1       4.076  -3.968   4.080  0.00  0.00    +0.207 C 
ATOM     22  C   UNL     1       3.520  -5.325   4.624  0.00  0.00    +0.170 C 
ATOM     23  C   UNL     1       1.591  -6.877   5.107  0.00  0.00    +0.016 C 
ATOM     24  C   UNL     1      -0.427  -2.959  -0.021  0.00  0.00    +0.012 C 
ATOM     25  C   UNL     1      -4.597   0.230   0.496  0.00  0.00    +0.012 C 
ENDROOT
BRANCH   1  27
ATOM     26  C   UNL     1      -4.691  -2.041  -2.028  0.00  0.00    +0.008 C 
ATOM     27  C   UNL     1      -3.678  -0.937  -1.663  0.00  0.00    -0.005 C 
BRANCH  27  28
ATOM     28  C   UNL     1      -2.404  -1.123  -2.557  0.00  0.00    -0.014 C 
ATOM     29  C   UNL     1      -2.233  -2.475  -3.274  0.00  0.00    +0.007 C 
ATOM     30  C   UNL     1      -2.355  -0.042  -3.650  0.00  0.00    +0.007 C 
ENDBRANCH  27  28
ENDBRANCH   1  27
BRANCH  18  31
ATOM     31  C   UNL     1      -1.771   1.439   0.287  0.00  0.00    +0.309 C 
ATOM     32  O   UNL     1      -2.079   2.138   1.253  0.00  0.00    -0.251 OA
BRANCH  31  33
ATOM     33  O   UNL     1      -1.112   2.038  -0.714  0.00  0.00    -0.480 OA
ATOM     34  H   UNL     1      -1.446   2.888  -1.011  0.00  0.00    +0.295 HD
ENDBRANCH  31  33
ENDBRANCH  18  31
BRANCH  12  35
ATOM     35  O   UNL     1       3.137  -3.628   0.846  0.00  0.00    -0.366 OA
ATOM     36  H   UNL     1       3.852  -4.260   0.638  0.00  0.00    +0.213 HD
ENDBRANCH  12  35
BRANCH  22  37
ATOM     37  O   UNL     1       4.418  -6.401   4.360  0.00  0.00    -0.341 OA
BRANCH  37  38
ATOM     38  C   UNL     1       5.709  -6.026   3.925  0.00  0.00    +0.282 C 
ATOM     39  C   UNL     1       6.749  -6.400   4.988  0.00  0.00    +0.201 C 
ATOM     40  C   UNL     1       8.069  -6.803   4.324  0.00  0.00    +0.179 C 
ATOM     41  C   UNL     1       8.290  -6.056   2.985  0.00  0.00    +0.177 C 
ATOM     42  C   UNL     1       7.059  -6.084   2.051  0.00  0.00    +0.178 C 
ATOM     43  O   UNL     1       5.937  -6.700   2.701  0.00  0.00    -0.341 OA
BRANCH  41  44
ATOM     44  O   UNL     1       8.548  -4.662   3.264  0.00  0.00    -0.386 OA
ATOM     45  H   UNL     1       8.424  -4.507   4.220  0.00  0.00    +0.210 HD
ENDBRANCH  41  44
BRANCH  40  46
ATOM     46  O   UNL     1       8.132  -8.218   4.143  0.00  0.00    -0.386 OA
ATOM     47  H   UNL     1       7.265  -8.497   3.795  0.00  0.00    +0.210 HD
ENDBRANCH  40  46
BRANCH  39  48
ATOM     48  O   UNL     1       7.036  -5.311   5.905  0.00  0.00    -0.384 OA
ATOM     49  H   UNL     1       6.966  -4.474   5.429  0.00  0.00    +0.210 HD
ENDBRANCH  39  48
BRANCH  42  50
ATOM     50  C   UNL     1       7.272  -6.824   0.734  0.00  0.00    +0.190 C 
BRANCH  50  51
ATOM     51  O   UNL     1       7.698  -8.165   1.013  0.00  0.00    -0.392 OA
ATOM     52  H   UNL     1       8.276  -8.416   0.264  0.00  0.00    +0.210 HD
ENDBRANCH  50  51
ENDBRANCH  42  50
ENDBRANCH  37  38
ENDBRANCH  22  37
BRANCH  21  53
ATOM     53  O   UNL     1       4.736  -3.328   5.225  0.00  0.00    -0.459 OA
BRANCH  53  54
ATOM     54  C   UNL     1       5.743  -2.453   4.970  0.00  0.00    +0.304 C 
ATOM     55  O   UNL     1       6.711  -2.677   4.256  0.00  0.00    -0.251 OA
ATOM     56  C   UNL     1       5.472  -1.135   5.638  0.00  0.00    +0.136 C 
ENDBRANCH  53  54
ENDBRANCH  21  53
TORSDOF 14
ENDMDL
MODEL 7
REMARK VINA RESULT:     0.001      6.965     12.191
REMARK INTER + INTRA:          -2.942
REMARK INTER:                   0.000
REMARK INTRA:                  -2.942
REMARK UNBOUND:                -2.943
REMARK  Name = 
REMARK  22 active torsions:
REMARK  status: ('A' for Active; 'I' for Inactive)
REMARK    1  A    between atoms: C_1  and  C_2
REMARK    2  A    between atoms: C_2  and  C_3
REMARK    3  A    between atoms: C_2  and  C_6
REMARK    4  A    between atoms: C_3  and  C_4
REMARK    5  A    between atoms: C_3  and  C_5
REMARK    6  A    between atoms: C_6  and  C_50
REMARK    7  A    between atoms: C_9  and  C_49
REMARK    8  A    between atoms: C_14  and  C_48
REMARK    9  A    between atoms: C_17  and  O_47
REMARK   10  A    between atoms: C_22  and  C_27
REMARK   11  A    between atoms: C_23  and  C_24
REMARK   12  A    between atoms: C_24  and  O_26
REMARK   13  A    between atoms: C_29  and  O_43
REMARK   14  A    between atoms: C_30  and  O_31
REMARK   15  A    between atoms: O_31  and  C_32
REMARK   16  A    between atoms: C_33  and  O_42
REMARK   17  A    between atoms: C_34  and  O_41
REMARK   18  A    between atoms: C_35  and  O_40
REMARK   19  A    between atoms: C_36  and  C_38
REMARK   20  A    between atoms: C_38  and  O_39
REMARK   21  A    between atoms: O_43  and  C_44
REMARK   22  A    between atoms: C_44  and  C_46
REMARK                            x       y       z     vdW  Elec       q    Type
REMARK                         _______ _______ _______ _____ _____    ______ ____
ROOT
ATOM      1  C   UNL     1      -3.661  -2.675  -1.811  0.00  0.00    -0.016 C 
ATOM      2  C   UNL     1      -4.280  -2.493  -0.380  0.00  0.00    +0.008 C 
ATOM      3  C   UNL     1      -3.637  -1.582   0.634  0.00  0.00    +0.008 C 
ATOM      4  C   UNL     1      -2.902  -0.360   0.063  0.00  0.00    -0.019 C 
ATOM      5  C   UNL     1      -3.345   0.939   0.791  0.00  0.00    +0.022 C 
ATOM      6  C   UNL     1      -3.537   0.873   2.309  0.00  0.00    +0.009 C 
ATOM      7  C   UNL     1      -4.053   2.227   2.725  0.00  0.00    +0.006 C 
ATOM      8  C   UNL     1      -3.028   3.331   2.455  0.00  0.00    +0.015 C 
ATOM      9  C   UNL     1      -2.331   3.888   3.699  0.00  0.00    +0.025 C 
ATOM     10  C   UNL     1      -1.206   2.952   4.166  0.00  0.00    +0.172 C 
ATOM     11  O   UNL     1      -0.168   2.948   3.203  0.00  0.00    -0.350 OA
ATOM     12  C   UNL     1      -0.603   2.379   1.987  0.00  0.00    +0.257 C 
ATOM     13  C   UNL     1      -1.919   3.023   1.391  0.00  0.00    +0.050 C 
ATOM     14  C   UNL     1      -2.464   2.092   0.328  0.00  0.00    -0.059 C 
ATOM     15  C   UNL     1      -2.033   2.142  -0.947  0.00  0.00    -0.026 C 
ATOM     16  C   UNL     1      -2.293   1.086  -1.963  0.00  0.00    +0.035 C 
ATOM     17  C   UNL     1      -3.208  -0.093  -1.494  0.00  0.00    -0.009 C 
ATOM     18  C   UNL     1      -2.929  -1.380  -2.363  0.00  0.00    +0.110 C 
ATOM     19  C   UNL     1      -4.675   0.376  -1.765  0.00  0.00    +0.013 C 
ATOM     20  C   UNL     1      -1.587   4.397   0.789  0.00  0.00    +0.063 C 
ATOM     21  C   UNL     1      -1.150   5.402   1.834  0.00  0.00    +0.207 C 
ATOM     22  C   UNL     1      -1.783   5.268   3.258  0.00  0.00    +0.170 C 
ATOM     23  C   UNL     1      -3.295   4.080   4.891  0.00  0.00    +0.016 C 
ATOM     24  C   UNL     1      -1.389  -0.597   0.396  0.00  0.00    +0.012 C 
ATOM     25  C   UNL     1      -4.951  -3.043  -2.631  0.00  0.00    +0.012 C 
ENDROOT
BRANCH   1  27
ATOM     26  C   UNL     1      -2.966  -5.004  -0.698  0.00  0.00    +0.008 C 
ATOM     27  C   UNL     1      -2.645  -3.934  -1.760  0.00  0.00    -0.005 C 
BRANCH  27  28
ATOM     28  C   UNL     1      -1.108  -3.630  -1.704  0.00  0.00    -0.014 C 
ATOM     29  C   UNL     1      -0.340  -4.100  -0.454  0.00  0.00    +0.007 C 
ATOM     30  C   UNL     1      -0.395  -4.255  -2.914  0.00  0.00    +0.007 C 
ENDBRANCH  27  28
ENDBRANCH   1  27
BRANCH  18  31
ATOM     31  C   UNL     1      -2.986  -1.040  -3.905  0.00  0.00    +0.309 C 
ATOM     32  O   UNL     1      -3.964  -0.552  -4.471  0.00  0.00    -0.251 OA
BRANCH  31  33
ATOM     33  O   UNL     1      -1.875  -1.202  -4.636  0.00  0.00    -0.480 OA
ATOM     34  H   UNL     1      -1.986  -1.519  -5.537  0.00  0.00    +0.295 HD
ENDBRANCH  31  33
ENDBRANCH  18  31
BRANCH  12  35
ATOM     35  O   UNL     1       0.500   2.538   1.107  0.00  0.00    -0.366 OA
ATOM     36  H   UNL     1       0.179   2.138   0.276  0.00  0.00    +0.213 HD
ENDBRANCH  12  35
BRANCH  22  37
ATOM     37  O   UNL     1      -0.867   5.662   4.277  0.00  0.00    -0.341 OA
BRANCH  37  38
ATOM     38  C   UNL     1       0.293   6.333   3.828  0.00  0.00    +0.282 C 
ATOM     39  C   UNL     1       0.279   7.787   4.317  0.00  0.00    +0.201 C 
ATOM     40  C   UNL     1       1.704   8.264   4.610  0.00  0.00    +0.179 C 
ATOM     41  C   UNL     1       2.743   7.569   3.696  0.00  0.00    +0.177 C 
ATOM     42  C   UNL     1       2.575   6.033   3.626  0.00  0.00    +0.178 C 
ATOM     43  O   UNL     1       1.401   5.614   4.338  0.00  0.00    -0.341 OA
BRANCH  41  44
ATOM     44  O   UNL     1       2.575   8.050   2.344  0.00  0.00    -0.386 OA
ATOM     45  H   UNL     1       2.482   9.022   2.368  0.00  0.00    +0.210 HD
ENDBRANCH  41  44
BRANCH  40  46
ATOM     46  O   UNL     1       2.024   8.082   5.990  0.00  0.00    -0.386 OA
ATOM     47  H   UNL     1       1.698   8.871   6.461  0.00  0.00    +0.210 HD
ENDBRANCH  40  46
BRANCH  39  48
ATOM     48  O   UNL     1      -0.298   8.702   3.347  0.00  0.00    -0.384 OA
ATOM     49  H   UNL     1       0.071   9.583   3.489  0.00  0.00    +0.210 HD
ENDBRANCH  39  48
BRANCH  42  50
ATOM     50  C   UNL     1       3.747   5.235   4.190  0.00  0.00    +0.190 C 
BRANCH  50  51
ATOM     51  O   UNL     1       3.977   5.636   5.547  0.00  0.00    -0.392 OA
ATOM     52  H   UNL     1       4.471   4.897   5.958  0.00  0.00    +0.210 HD
ENDBRANCH  50  51
ENDBRANCH  42  50
ENDBRANCH  37  38
ENDBRANCH  22  37
BRANCH  21  53
ATOM     53  O   UNL     1      -1.588   6.710   1.332  0.00  0.00    -0.459 OA
BRANCH  53  54
ATOM     54  C   UNL     1      -0.803   7.333   0.415  0.00  0.00    +0.304 C 
ATOM     55  O   UNL     1       0.398   7.537   0.533  0.00  0.00    -0.251 OA
ATOM     56  C   UNL     1      -1.605   7.687  -0.805  0.00  0.00    +0.136 C 
ENDBRANCH  53  54
ENDBRANCH  21  53
TORSDOF 14
ENDMDL
MODEL 8
REMARK VINA RESULT:     0.002      7.112     11.879
REMARK INTER + INTRA:          -2.941
REMARK INTER:                   0.000
REMARK INTRA:                  -2.941
REMARK UNBOUND:                -2.943
REMARK  Name = 
REMARK  22 active torsions:
REMARK  status: ('A' for Active; 'I' for Inactive)
REMARK    1  A    between atoms: C_1  and  C_2
REMARK    2  A    between atoms: C_2  and  C_3
REMARK    3  A    between atoms: C_2  and  C_6
REMARK    4  A    between atoms: C_3  and  C_4
REMARK    5  A    between atoms: C_3  and  C_5
REMARK    6  A    between atoms: C_6  and  C_50
REMARK    7  A    between atoms: C_9  and  C_49
REMARK    8  A    between atoms: C_14  and  C_48
REMARK    9  A    between atoms: C_17  and  O_47
REMARK   10  A    between atoms: C_22  and  C_27
REMARK   11  A    between atoms: C_23  and  C_24
REMARK   12  A    between atoms: C_24  and  O_26
REMARK   13  A    between atoms: C_29  and  O_43
REMARK   14  A    between atoms: C_30  and  O_31
REMARK   15  A    between atoms: O_31  and  C_32
REMARK   16  A    between atoms: C_33  and  O_42
REMARK   17  A    between atoms: C_34  and  O_41
REMARK   18  A    between atoms: C_35  and  O_40
REMARK   19  A    between atoms: C_36  and  C_38
REMARK   20  A    between atoms: C_38  and  O_39
REMARK   21  A    between atoms: O_43  and  C_44
REMARK   22  A    between atoms: C_44  and  C_46
REMARK                            x       y       z     vdW  Elec       q    Type
REMARK                         _______ _______ _______ _____ _____    ______ ____
ROOT
ATOM      1  C   UNL     1       1.138   0.471   7.022  0.00  0.00    -0.016 C 
ATOM      2  C   UNL     1       1.359   2.021   7.125  0.00  0.00    +0.008 C 
ATOM      3  C   UNL     1       1.409   2.883   5.889  0.00  0.00    +0.008 C 
ATOM      4  C   UNL     1       0.548   2.407   4.708  0.00  0.00    -0.019 C 
ATOM      5  C   UNL     1      -0.324   3.569   4.159  0.00  0.00    +0.022 C 
ATOM      6  C   UNL     1       0.322   4.954   4.053  0.00  0.00    +0.009 C 
ATOM      7  C   UNL     1      -0.765   5.890   3.589  0.00  0.00    +0.006 C 
ATOM      8  C   UNL     1      -1.267   5.526   2.191  0.00  0.00    +0.015 C 
ATOM      9  C   UNL     1      -0.817   6.471   1.074  0.00  0.00    +0.025 C 
ATOM     10  C   UNL     1       0.624   6.165   0.640  0.00  0.00    +0.172 C 
ATOM     11  O   UNL     1       0.668   4.898   0.012  0.00  0.00    -0.350 OA
ATOM     12  C   UNL     1       0.359   3.866   0.924  0.00  0.00    +0.257 C 
ATOM     13  C   UNL     1      -1.004   4.060   1.703  0.00  0.00    +0.050 C 
ATOM     14  C   UNL     1      -1.015   3.110   2.883  0.00  0.00    -0.059 C 
ATOM     15  C   UNL     1      -1.431   1.834   2.762  0.00  0.00    -0.026 C 
ATOM     16  C   UNL     1      -1.196   0.776   3.781  0.00  0.00    +0.035 C 
ATOM     17  C   UNL     1      -0.496   1.247   5.098  0.00  0.00    -0.009 C 
ATOM     18  C   UNL     1       0.228   0.033   5.797  0.00  0.00    +0.110 C 
ATOM     19  C   UNL     1      -1.647   1.740   6.035  0.00  0.00    +0.013 C 
ATOM     20  C   UNL     1      -2.178   3.764   0.758  0.00  0.00    +0.063 C 
ATOM     21  C   UNL     1      -2.280   4.762  -0.377  0.00  0.00    +0.207 C 
ATOM     22  C   UNL     1      -1.826   6.228  -0.077  0.00  0.00    +0.170 C 
ATOM     23  C   UNL     1      -0.868   7.958   1.489  0.00  0.00    +0.016 C 
ATOM     24  C   UNL     1       1.571   2.011   3.588  0.00  0.00    +0.012 C 
ATOM     25  C   UNL     1       0.463   0.189   8.414  0.00  0.00    +0.012 C 
ENDROOT
BRANCH   1  27
ATOM     26  C   UNL     1       3.745   0.540   7.604  0.00  0.00    +0.008 C 
ATOM     27  C   UNL     1       2.590  -0.238   6.943  0.00  0.00    -0.005 C 
BRANCH  27  28
ATOM     28  C   UNL     1       3.079  -0.751   5.545  0.00  0.00    -0.014 C 
ATOM     29  C   UNL     1       4.348  -0.105   4.959  0.00  0.00    +0.007 C 
ATOM     30  C   UNL     1       3.342  -2.265   5.593  0.00  0.00    +0.007 C 
ENDBRANCH  27  28
ENDBRANCH   1  27
BRANCH  18  31
ATOM     31  C   UNL     1      -0.752  -1.197   5.945  0.00  0.00    +0.309 C 
ATOM     32  O   UNL     1      -1.829  -1.157   6.541  0.00  0.00    -0.251 OA
BRANCH  31  33
ATOM     33  O   UNL     1      -0.449  -2.336   5.308  0.00  0.00    -0.480 OA
ATOM     34  H   UNL     1      -0.796  -2.445   4.418  0.00  0.00    +0.295 HD
ENDBRANCH  31  33
ENDBRANCH  18  31
BRANCH  12  35
ATOM     35  O   UNL     1       0.344   2.687   0.132  0.00  0.00    -0.366 OA
ATOM     36  H   UNL     1      -0.356   2.869  -0.523  0.00  0.00    +0.213 HD
ENDBRANCH  12  35
BRANCH  22  37
ATOM     37  O   UNL     1      -1.253   6.843  -1.228  0.00  0.00    -0.341 OA
BRANCH  37  38
ATOM     38  C   UNL     1      -1.442   6.153  -2.447  0.00  0.00    +0.282 C 
ATOM     39  C   UNL     1      -2.346   6.971  -3.376  0.00  0.00    +0.201 C 
ATOM     40  C   UNL     1      -1.933   6.767  -4.837  0.00  0.00    +0.179 C 
ATOM     41  C   UNL     1      -1.335   5.358  -5.074  0.00  0.00    +0.177 C 
ATOM     42  C   UNL     1      -0.262   4.959  -4.035  0.00  0.00    +0.178 C 
ATOM     43  O   UNL     1      -0.154   5.952  -3.003  0.00  0.00    -0.341 OA
BRANCH  41  44
ATOM     44  O   UNL     1      -2.388   4.377  -4.958  0.00  0.00    -0.386 OA
ATOM     45  H   UNL     1      -3.248   4.832  -5.033  0.00  0.00    +0.210 HD
ENDBRANCH  41  44
BRANCH  40  46
ATOM     46  O   UNL     1      -1.027   7.791  -5.253  0.00  0.00    -0.386 OA
ATOM     47  H   UNL     1      -1.483   8.642  -5.118  0.00  0.00    +0.210 HD
ENDBRANCH  40  46
BRANCH  39  48
ATOM     48  O   UNL     1      -3.747   6.605  -3.265  0.00  0.00    -0.384 OA
ATOM     49  H   UNL     1      -3.888   6.153  -2.423  0.00  0.00    +0.210 HD
ENDBRANCH  39  48
BRANCH  42  50
ATOM     50  C   UNL     1       1.139   4.758  -4.606  0.00  0.00    +0.190 C 
BRANCH  50  51
ATOM     51  O   UNL     1       1.546   5.954  -5.282  0.00  0.00    -0.392 OA
ATOM     52  H   UNL     1       1.783   5.673  -6.190  0.00  0.00    +0.210 HD
ENDBRANCH  50  51
ENDBRANCH  42  50
ENDBRANCH  37  38
ENDBRANCH  22  37
BRANCH  21  53
ATOM     53  O   UNL     1      -3.711   4.852  -0.695  0.00  0.00    -0.459 OA
BRANCH  53  54
ATOM     54  C   UNL     1      -4.244   3.895  -1.498  0.00  0.00    +0.304 C 
ATOM     55  O   UNL     1      -3.800   3.557  -2.587  0.00  0.00    -0.251 OA
ATOM     56  C   UNL     1      -5.430   3.257  -0.833  0.00  0.00    +0.136 C 
ENDBRANCH  53  54
ENDBRANCH  21  53
TORSDOF 14
ENDMDL
MODEL 9
REMARK VINA RESULT:     0.003      5.578      9.016
REMARK INTER + INTRA:          -2.939
REMARK INTER:                   0.000
REMARK INTRA:                  -2.939
REMARK UNBOUND:                -2.943
REMARK  Name = 
REMARK  22 active torsions:
REMARK  status: ('A' for Active; 'I' for Inactive)
REMARK    1  A    between atoms: C_1  and  C_2
REMARK    2  A    between atoms: C_2  and  C_3
REMARK    3  A    between atoms: C_2  and  C_6
REMARK    4  A    between atoms: C_3  and  C_4
REMARK    5  A    between atoms: C_3  and  C_5
REMARK    6  A    between atoms: C_6  and  C_50
REMARK    7  A    between atoms: C_9  and  C_49
REMARK    8  A    between atoms: C_14  and  C_48
REMARK    9  A    between atoms: C_17  and  O_47
REMARK   10  A    between atoms: C_22  and  C_27
REMARK   11  A    between atoms: C_23  and  C_24
REMARK   12  A    between atoms: C_24  and  O_26
REMARK   13  A    between atoms: C_29  and  O_43
REMARK   14  A    between atoms: C_30  and  O_31
REMARK   15  A    between atoms: O_31  and  C_32
REMARK   16  A    between atoms: C_33  and  O_42
REMARK   17  A    between atoms: C_34  and  O_41
REMARK   18  A    between atoms: C_35  and  O_40
REMARK   19  A    between atoms: C_36  and  C_38
REMARK   20  A    between atoms: C_38  and  O_39
REMARK   21  A    between atoms: O_43  and  C_44
REMARK   22  A    between atoms: C_44  and  C_46
REMARK                            x       y       z     vdW  Elec       q    Type
REMARK                         _______ _______ _______ _____ _____    ______ ____
ROOT
ATOM      1  C   UNL     1      -2.967   4.223  -6.569  0.00  0.00    -0.016 C 
ATOM      2  C   UNL     1      -3.649   3.153  -5.645  0.00  0.00    +0.008 C 
ATOM      3  C   UNL     1      -2.866   2.442  -4.572  0.00  0.00    +0.008 C 
ATOM      4  C   UNL     1      -1.726   3.249  -3.931  0.00  0.00    -0.019 C 
ATOM      5  C   UNL     1      -1.814   3.192  -2.381  0.00  0.00    +0.022 C 
ATOM      6  C   UNL     1      -2.181   1.851  -1.738  0.00  0.00    +0.009 C 
ATOM      7  C   UNL     1      -2.287   2.110  -0.257  0.00  0.00    +0.006 C 
ATOM      8  C   UNL     1      -0.944   2.536   0.340  0.00  0.00    +0.015 C 
ATOM      9  C   UNL     1      -0.247   1.472   1.192  0.00  0.00    +0.025 C 
ATOM     10  C   UNL     1       0.469   0.440   0.308  0.00  0.00    +0.172 C 
ATOM     11  O   UNL     1       1.551   1.062  -0.360  0.00  0.00    -0.350 OA
ATOM     12  C   UNL     1       1.094   2.036  -1.273  0.00  0.00    +0.257 C 
ATOM     13  C   UNL     1       0.121   3.117  -0.653  0.00  0.00    +0.050 C 
ATOM     14  C   UNL     1      -0.571   3.841  -1.789  0.00  0.00    -0.059 C 
ATOM     15  C   UNL     1      -0.009   4.904  -2.398  0.00  0.00    -0.026 C 
ATOM     16  C   UNL     1      -0.477   5.473  -3.692  0.00  0.00    +0.035 C 
ATOM     17  C   UNL     1      -1.761   4.816  -4.296  0.00  0.00    -0.009 C 
ATOM     18  C   UNL     1      -1.809   5.042  -5.856  0.00  0.00    +0.110 C 
ATOM     19  C   UNL     1      -2.968   5.574  -3.651  0.00  0.00    +0.013 C 
ATOM     20  C   UNL     1       0.932   4.102   0.203  0.00  0.00    +0.063 C 
ATOM     21  C   UNL     1       1.547   3.446   1.422  0.00  0.00    +0.207 C 
ATOM     22  C   UNL     1       0.752   2.265   2.071  0.00  0.00    +0.170 C 
ATOM     23  C   UNL     1      -1.224   0.699   2.105  0.00  0.00    +0.016 C 
ATOM     24  C   UNL     1      -0.411   2.512  -4.358  0.00  0.00    +0.012 C 
ATOM     25  C   UNL     1      -4.210   5.116  -6.932  0.00  0.00    +0.012 C 
ENDROOT
BRANCH   1  27
ATOM     26  C   UNL     1      -3.162   2.179  -8.279  0.00  0.00    +0.008 C 
ATOM     27  C   UNL     1      -2.411   3.466  -7.886  0.00  0.00    -0.005 C 
BRANCH  27  28
ATOM     28  C   UNL     1      -0.871   3.182  -7.971  0.00  0.00    -0.014 C 
ATOM     29  C   UNL     1      -0.426   1.709  -8.024  0.00  0.00    +0.007 C 
ATOM     30  C   UNL     1      -0.268   3.864  -9.210  0.00  0.00    +0.007 C 
ENDBRANCH  27  28
ENDBRANCH   1  27
BRANCH  18  31
ATOM     31  C   UNL     1      -1.588   6.565  -6.211  0.00  0.00    +0.309 C 
ATOM     32  O   UNL     1      -2.294   7.483  -5.791  0.00  0.00    -0.251 OA
BRANCH  31  33
ATOM     33  O   UNL     1      -0.514   6.903  -6.937  0.00  0.00    -0.480 OA
ATOM     34  H   UNL     1      -0.630   7.594  -7.595  0.00  0.00    +0.295 HD
ENDBRANCH  31  33
ENDBRANCH  18  31
BRANCH  12  35
ATOM     35  O   UNL     1       2.280   2.631  -1.780  0.00  0.00    -0.366 OA
ATOM     36  H   UNL     1       1.960   3.470  -2.162  0.00  0.00    +0.213 HD
ENDBRANCH  12  35
BRANCH  22  37
ATOM     37  O   UNL     1       1.630   1.292   2.632  0.00  0.00    -0.341 OA
BRANCH  37  38
ATOM     38  C   UNL     1       2.984   1.681   2.741  0.00  0.00    +0.282 C 
ATOM     39  C   UNL     1       3.376   1.800   4.219  0.00  0.00    +0.201 C 
ATOM     40  C   UNL     1       4.839   1.390   4.417  0.00  0.00    +0.179 C 
ATOM     41  C   UNL     1       5.698   1.704   3.167  0.00  0.00    +0.177 C 
ATOM     42  C   UNL     1       5.062   1.221   1.843  0.00  0.00    +0.178 C 
ATOM     43  O   UNL     1       3.746   0.694   2.069  0.00  0.00    -0.341 OA
BRANCH  41  44
ATOM     44  O   UNL     1       5.838   3.137   3.043  0.00  0.00    -0.386 OA
ATOM     45  H   UNL     1       5.134   3.469   2.455  0.00  0.00    +0.210 HD
ENDBRANCH  41  44
BRANCH  40  46
ATOM     46  O   UNL     1       4.933   0.011   4.776  0.00  0.00    -0.386 OA
ATOM     47  H   UNL     1       4.689  -0.504   3.984  0.00  0.00    +0.210 HD
ENDBRANCH  40  46
BRANCH  39  48
ATOM     48  O   UNL     1       3.228   3.149   4.735  0.00  0.00    -0.384 OA
ATOM     49  H   UNL     1       4.091   3.581   4.739  0.00  0.00    +0.210 HD
ENDBRANCH  39  48
BRANCH  42  50
ATOM     50  C   UNL     1       5.853   0.141   1.110  0.00  0.00    +0.190 C 
BRANCH  50  51
ATOM     51  O   UNL     1       6.051  -0.974   1.989  0.00  0.00    -0.392 OA
ATOM     52  H   UNL     1       5.207  -1.471   1.974  0.00  0.00    +0.210 HD
ENDBRANCH  50  51
ENDBRANCH  42  50
ENDBRANCH  37  38
ENDBRANCH  22  37
BRANCH  21  53
ATOM     53  O   UNL     1       1.600   4.494   2.449  0.00  0.00    -0.459 OA
BRANCH  53  54
ATOM     54  C   UNL     1       2.636   5.372   2.408  0.00  0.00    +0.304 C 
ATOM     55  O   UNL     1       3.819   5.067   2.343  0.00  0.00    -0.251 OA
ATOM     56  C   UNL     1       2.124   6.784   2.389  0.00  0.00    +0.136 C 
ENDBRANCH  53  54
ENDBRANCH  21  53
TORSDOF 14
ENDMDL
