MODEL 1
REMARK VINA RESULT:    -8.665      0.000      0.000
REMARK INTER + INTRA:         -16.520
REMARK INTER:                 -14.744
REMARK INTRA:                  -1.776
REMARK UNBOUND:                -1.776
REMARK  Name = 
REMARK  16 active torsions:
REMARK  status: ('A' for Active; 'I' for Inactive)
REMARK    1  A    between atoms: C_1  and  C_2
REMARK    2  A    between atoms: C_2  and  C_3
REMARK    3  A    between atoms: C_2  and  CA_12
REMARK    4  A    between atoms: C_3  and  C_4
REMARK    5  A    between atoms: C_3  and  O_11
REMARK    6  A    between atoms: C_7  and  O_10
REMARK    7  A    between atoms: CA_12  and  C_13
REMARK    8  A    between atoms: CA_12  and  N_35
REMARK    9  A    between atoms: N_15  and  CA_16
REMARK   10  A    between atoms: CA_16  and  C_17
REMARK   11  A    between atoms: CA_16  and  C_32
REMARK   12  A    between atoms: C_18  and  O_31
REMARK   13  A    between atoms: C_19  and  O_30
REMARK   14  A    between atoms: C_20  and  N_22
REMARK   15  A    between atoms: CA_24  and  C_28
REMARK   16  A    between atoms: C_32  and  OXT_34
REMARK                            x       y       z     vdW  Elec       q    Type
REMARK                         _______ _______ _______ _____ _____    ______ ____
ROOT
ATOM      1  CA  UNL     1      -2.638   4.062  -2.222  0.00  0.00    +0.213 C 
ENDROOT
BRANCH   1   2
ATOM      2  C   UNL     1      -2.737   2.557  -1.916  0.00  0.00    +0.183 C 
ATOM      3  C   UNL     1      -2.020   2.077  -0.650  0.00  0.00    +0.178 C 
ATOM      4  C   UNL     1      -1.511   0.674  -1.007  0.00  0.00    +0.195 C 
ATOM      5  C   UNL     1      -2.078   0.408  -2.411  0.00  0.00    +0.255 C 
ATOM      6  O   UNL     1      -2.282   1.717  -2.984  0.00  0.00    -0.345 OA
BRANCH   5   7
ATOM      7  N   UNL     1      -3.315  -0.348  -2.463  0.00  0.00    -0.270 N 
ATOM      8  C   UNL     1      -4.605   0.121  -2.605  0.00  0.00    +0.122 A 
ATOM      9  CA  UNL     1      -5.450  -0.906  -2.545  0.00  0.00    +0.099 A 
ATOM     10  N   UNL     1      -4.735  -2.065  -2.374  0.00  0.00    -0.304 N 
ATOM     11  C   UNL     1      -3.366  -1.751  -2.308  0.00  0.00    +0.329 A 
ATOM     12  O   UNL     1      -2.457  -2.540  -2.135  0.00  0.00    -0.246 OA
ATOM     13  H   UNL     1      -5.090  -3.003  -2.274  0.00  0.00    +0.171 HD
BRANCH   9  14
ATOM     14  C   UNL     1      -6.919  -0.815  -2.629  0.00  0.00    +0.278 C 
ATOM     15  O   UNL     1      -7.492  -0.322  -3.589  0.00  0.00    -0.294 OA
ENDBRANCH   9  14
ENDBRANCH   5   7
BRANCH   4  16
ATOM     16  O   UNL     1      -1.824  -0.313  -0.028  0.00  0.00    -0.385 OA
ATOM     17  H   UNL     1      -1.793  -1.173  -0.496  0.00  0.00    +0.210 HD
ENDBRANCH   4  16
BRANCH   3  18
ATOM     18  O   UNL     1      -2.878   2.014   0.493  0.00  0.00    -0.386 OA
ATOM     19  H   UNL     1      -2.721   1.184   0.991  0.00  0.00    +0.210 HD
ENDBRANCH   3  18
ENDBRANCH   1   2
BRANCH   1  22
ATOM     20  C   UNL     1      -0.548   5.367  -1.875  0.00  0.00    +0.231 C 
ATOM     21  O   UNL     1      -0.302   5.376  -3.075  0.00  0.00    -0.274 OA
ATOM     22  N   UNL     1      -1.718   4.831  -1.364  0.00  0.00    -0.299 N 
ATOM     23  H   UNL     1      -1.802   4.740  -0.358  0.00  0.00    +0.150 HD
BRANCH  20  24
ATOM     24  CA  UNL     1       0.369   6.061  -0.832  0.00  0.00    +0.143 C 
BRANCH  24  25
ATOM     25  N   UNL     1       0.036   5.503   0.498  0.00  0.00    -0.320 NA
ATOM     26  H1  UNL     1       0.266   4.517   0.559  0.00  0.00    +0.119 HD
ATOM     27  H2  UNL     1      -0.979   5.577   0.625  0.00  0.00    +0.119 HD
ENDBRANCH  24  25
BRANCH  24  29
ATOM     28  C   UNL     1       2.494   7.315  -1.373  0.00  0.00    +0.012 C 
ATOM     29  C   UNL     1       1.880   5.920  -1.147  0.00  0.00    +0.046 C 
BRANCH  29  30
ATOM     30  C   UNL     1       2.616   5.162  -0.008  0.00  0.00    +0.168 C 
BRANCH  30  31
ATOM     31  C   UNL     1       2.966   3.731  -0.400  0.00  0.00    +0.070 A 
ATOM     32  N   UNL     1       2.068   2.769  -0.044  0.00  0.00    -0.254 NA
ATOM     33  C   UNL     1       2.390   1.485  -0.328  0.00  0.00    +0.156 A 
ATOM     34  C   UNL     1       3.566   1.112  -0.958  0.00  0.00    +0.135 A 
ATOM     35  C   UNL     1       4.463   2.102  -1.329  0.00  0.00    +0.049 A 
ATOM     36  C   UNL     1       4.162   3.435  -1.050  0.00  0.00    +0.029 A 
BRANCH  34  37
ATOM     37  O   UNL     1       3.885  -0.182  -1.230  0.00  0.00    -0.505 OA
ATOM     38  H   UNL     1       3.816  -0.336  -2.187  0.00  0.00    +0.292 HD
ENDBRANCH  34  37
ENDBRANCH  30  31
BRANCH  30  39
ATOM     39  O   UNL     1       3.820   5.869   0.324  0.00  0.00    -0.385 OA
ATOM     40  H   UNL     1       3.524   6.639   0.855  0.00  0.00    +0.210 HD
ENDBRANCH  30  39
ENDBRANCH  29  30
ENDBRANCH  24  29
ENDBRANCH  20  24
ENDBRANCH   1  22
BRANCH   1  41
ATOM     41  C   UNL     1      -4.043   4.667  -2.142  0.00  0.00    +0.328 C 
ATOM     42  O   UNL     1      -4.515   5.429  -2.973  0.00  0.00    -0.249 OA
BRANCH  41  43
ATOM     43  OXT UNL     1      -4.722   4.292  -1.031  0.00  0.00    -0.479 OA
ATOM     44  HXT UNL     1      -5.293   5.021  -0.712  0.00  0.00    +0.295 HD
ENDBRANCH  41  43
ENDBRANCH   1  41
TORSDOF 15
ENDMDL
MODEL 2
REMARK VINA RESULT:    -8.655      3.368      8.988
REMARK INTER + INTRA:         -16.503
REMARK INTER:                 -15.178
REMARK INTRA:                  -1.325
REMARK UNBOUND:                -1.776
REMARK  Name = 
REMARK  16 active torsions:
REMARK  status: ('A' for Active; 'I' for Inactive)
REMARK    1  A    between atoms: C_1  and  C_2
REMARK    2  A    between atoms: C_2  and  C_3
REMARK    3  A    between atoms: C_2  and  CA_12
REMARK    4  A    between atoms: C_3  and  C_4
REMARK    5  A    between atoms: C_3  and  O_11
REMARK    6  A    between atoms: C_7  and  O_10
REMARK    7  A    between atoms: CA_12  and  C_13
REMARK    8  A    between atoms: CA_12  and  N_35
REMARK    9  A    between atoms: N_15  and  CA_16
REMARK   10  A    between atoms: CA_16  and  C_17
REMARK   11  A    between atoms: CA_16  and  C_32
REMARK   12  A    between atoms: C_18  and  O_31
REMARK   13  A    between atoms: C_19  and  O_30
REMARK   14  A    between atoms: C_20  and  N_22
REMARK   15  A    between atoms: CA_24  and  C_28
REMARK   16  A    between atoms: C_32  and  OXT_34
REMARK                            x       y       z     vdW  Elec       q    Type
REMARK                         _______ _______ _______ _____ _____    ______ ____
ROOT
ATOM      1  CA  UNL     1      -1.782   3.316  -3.172  0.00  0.00    +0.213 C 
ENDROOT
BRANCH   1   2
ATOM      2  C   UNL     1      -0.637   4.013  -2.415  0.00  0.00    +0.183 C 
ATOM      3  C   UNL     1      -0.952   4.469  -0.987  0.00  0.00    +0.178 C 
ATOM      4  C   UNL     1      -0.151   5.767  -0.815  0.00  0.00    +0.195 C 
ATOM      5  C   UNL     1       0.657   5.893  -2.117  0.00  0.00    +0.255 C 
ATOM      6  O   UNL     1      -0.102   5.154  -3.098  0.00  0.00    -0.345 OA
BRANCH   5   7
ATOM      7  N   UNL     1       2.017   5.394  -2.072  0.00  0.00    -0.270 N 
ATOM      8  C   UNL     1       2.465   4.151  -1.675  0.00  0.00    +0.122 A 
ATOM      9  CA  UNL     1       3.795   4.130  -1.731  0.00  0.00    +0.099 A 
ATOM     10  N   UNL     1       4.245   5.349  -2.173  0.00  0.00    -0.304 N 
ATOM     11  C   UNL     1       3.140   6.189  -2.394  0.00  0.00    +0.329 A 
ATOM     12  O   UNL     1       3.182   7.347  -2.763  0.00  0.00    -0.246 OA
ATOM     13  H   UNL     1       5.199   5.648  -2.301  0.00  0.00    +0.171 HD
BRANCH   9  14
ATOM     14  C   UNL     1       4.652   2.989  -1.360  0.00  0.00    +0.278 C 
ATOM     15  O   UNL     1       4.258   1.832  -1.399  0.00  0.00    -0.294 OA
ENDBRANCH   9  14
ENDBRANCH   5   7
BRANCH   4  16
ATOM     16  O   UNL     1       0.618   5.809   0.384  0.00  0.00    -0.385 OA
ATOM     17  H   UNL     1       1.495   6.161   0.127  0.00  0.00    +0.210 HD
ENDBRANCH   4  16
BRANCH   3  18
ATOM     18  O   UNL     1      -0.564   3.516   0.006  0.00  0.00    -0.386 OA
ATOM     19  H   UNL     1      -1.354   3.070   0.377  0.00  0.00    +0.210 HD
ENDBRANCH   3  18
ENDBRANCH   1   2
BRANCH   1  22
ATOM     20  C   UNL     1      -4.094   3.873  -3.903  0.00  0.00    +0.231 C 
ATOM     21  O   UNL     1      -3.926   3.335  -4.991  0.00  0.00    -0.274 OA
ATOM     22  N   UNL     1      -3.135   3.835  -2.905  0.00  0.00    -0.299 N 
ATOM     23  H   UNL     1      -3.283   4.405  -2.080  0.00  0.00    +0.150 HD
BRANCH  20  24
ATOM     24  CA  UNL     1      -5.437   4.540  -3.502  0.00  0.00    +0.143 C 
BRANCH  24  25
ATOM     25  N   UNL     1      -5.770   4.088  -2.133  0.00  0.00    -0.320 NA
ATOM     26  H1  UNL     1      -5.102   3.406  -1.790  0.00  0.00    +0.119 HD
ATOM     27  H2  UNL     1      -6.680   3.616  -2.170  0.00  0.00    +0.119 HD
ENDBRANCH  24  25
BRANCH  24  29
ATOM     28  C   UNL     1      -4.512   6.515  -4.777  0.00  0.00    +0.012 C 
ATOM     29  C   UNL     1      -5.413   6.086  -3.602  0.00  0.00    +0.046 C 
BRANCH  29  30
ATOM     30  C   UNL     1      -6.850   6.654  -3.764  0.00  0.00    +0.168 C 
BRANCH  30  31
ATOM     31  C   UNL     1      -7.353   7.319  -2.487  0.00  0.00    +0.070 A 
ATOM     32  N   UNL     1      -7.981   6.509  -1.589  0.00  0.00    -0.254 NA
ATOM     33  C   UNL     1      -8.489   7.092  -0.478  0.00  0.00    +0.156 A 
ATOM     34  C   UNL     1      -8.397   8.448  -0.215  0.00  0.00    +0.135 A 
ATOM     35  C   UNL     1      -7.742   9.258  -1.129  0.00  0.00    +0.049 A 
ATOM     36  C   UNL     1      -7.207   8.690  -2.285  0.00  0.00    +0.029 A 
BRANCH  34  37
ATOM     37  O   UNL     1      -8.921   9.026   0.900  0.00  0.00    -0.505 OA
ATOM     38  H   UNL     1      -9.550   8.413   1.315  0.00  0.00    +0.292 HD
ENDBRANCH  34  37
ENDBRANCH  30  31
BRANCH  30  39
ATOM     39  O   UNL     1      -6.859   7.613  -4.831  0.00  0.00    -0.385 OA
ATOM     40  H   UNL     1      -6.677   8.475  -4.400  0.00  0.00    +0.210 HD
ENDBRANCH  30  39
ENDBRANCH  29  30
ENDBRANCH  24  29
ENDBRANCH  20  24
ENDBRANCH   1  22
BRANCH   1  41
ATOM     41  C   UNL     1      -1.733   1.819  -2.854  0.00  0.00    +0.328 C 
ATOM     42  O   UNL     1      -1.399   1.352  -1.774  0.00  0.00    -0.249 OA
BRANCH  41  43
ATOM     43  OXT UNL     1      -2.078   1.038  -3.907  0.00  0.00    -0.479 OA
ATOM     44  HXT UNL     1      -2.934   1.326  -4.284  0.00  0.00    +0.295 HD
ENDBRANCH  41  43
ENDBRANCH   1  41
TORSDOF 15
ENDMDL
MODEL 3
REMARK VINA RESULT:    -8.192      2.449      3.783
REMARK INTER + INTRA:         -15.714
REMARK INTER:                 -13.917
REMARK INTRA:                  -1.796
REMARK UNBOUND:                -1.776
REMARK  Name = 
REMARK  16 active torsions:
REMARK  status: ('A' for Active; 'I' for Inactive)
REMARK    1  A    between atoms: C_1  and  C_2
REMARK    2  A    between atoms: C_2  and  C_3
REMARK    3  A    between atoms: C_2  and  CA_12
REMARK    4  A    between atoms: C_3  and  C_4
REMARK    5  A    between atoms: C_3  and  O_11
REMARK    6  A    between atoms: C_7  and  O_10
REMARK    7  A    between atoms: CA_12  and  C_13
REMARK    8  A    between atoms: CA_12  and  N_35
REMARK    9  A    between atoms: N_15  and  CA_16
REMARK   10  A    between atoms: CA_16  and  C_17
REMARK   11  A    between atoms: CA_16  and  C_32
REMARK   12  A    between atoms: C_18  and  O_31
REMARK   13  A    between atoms: C_19  and  O_30
REMARK   14  A    between atoms: C_20  and  N_22
REMARK   15  A    between atoms: CA_24  and  C_28
REMARK   16  A    between atoms: C_32  and  OXT_34
REMARK                            x       y       z     vdW  Elec       q    Type
REMARK                         _______ _______ _______ _____ _____    ______ ____
ROOT
ATOM      1  CA  UNL     1      -3.340   4.169  -2.671  0.00  0.00    +0.213 C 
ENDROOT
BRANCH   1   2
ATOM      2  C   UNL     1      -3.797   2.961  -3.509  0.00  0.00    +0.183 C 
ATOM      3  C   UNL     1      -3.525   3.044  -5.015  0.00  0.00    +0.178 C 
ATOM      4  C   UNL     1      -4.719   2.326  -5.659  0.00  0.00    +0.195 C 
ATOM      5  C   UNL     1      -5.525   1.782  -4.468  0.00  0.00    +0.255 C 
ATOM      6  O   UNL     1      -5.187   2.648  -3.364  0.00  0.00    -0.345 OA
BRANCH   5   7
ATOM      7  N   UNL     1      -5.268   0.402  -4.105  0.00  0.00    -0.270 N 
ATOM      8  C   UNL     1      -4.443  -0.088  -3.112  0.00  0.00    +0.122 A 
ATOM      9  CA  UNL     1      -4.452  -1.419  -3.158  0.00  0.00    +0.099 A 
ATOM     10  N   UNL     1      -5.287  -1.827  -4.167  0.00  0.00    -0.304 N 
ATOM     11  C   UNL     1      -5.822  -0.694  -4.804  0.00  0.00    +0.329 A 
ATOM     12  O   UNL     1      -6.578  -0.696  -5.756  0.00  0.00    -0.246 OA
ATOM     13  H   UNL     1      -5.488  -2.771  -4.462  0.00  0.00    +0.171 HD
BRANCH   9  14
ATOM     14  C   UNL     1      -3.677  -2.312  -2.278  0.00  0.00    +0.278 C 
ATOM     15  O   UNL     1      -2.459  -2.261  -2.199  0.00  0.00    -0.294 OA
ENDBRANCH   9  14
ENDBRANCH   5   7
BRANCH   4  16
ATOM     16  O   UNL     1      -4.344   1.356  -6.633  0.00  0.00    -0.385 OA
ATOM     17  H   UNL     1      -3.814   0.686  -6.154  0.00  0.00    +0.210 HD
ENDBRANCH   4  16
BRANCH   3  18
ATOM     18  O   UNL     1      -2.302   2.409  -5.401  0.00  0.00    -0.386 OA
ATOM     19  H   UNL     1      -2.452   1.454  -5.565  0.00  0.00    +0.210 HD
ENDBRANCH   3  18
ENDBRANCH   1   2
BRANCH   1  22
ATOM     20  C   UNL     1      -1.134   3.472  -1.755  0.00  0.00    +0.231 C 
ATOM     21  O   UNL     1      -0.609   3.523  -2.862  0.00  0.00    -0.274 OA
ATOM     22  N   UNL     1      -2.445   3.861  -1.541  0.00  0.00    -0.299 N 
ATOM     23  H   UNL     1      -2.856   3.675  -0.633  0.00  0.00    +0.150 HD
BRANCH  20  24
ATOM     24  CA  UNL     1      -0.345   3.082  -0.477  0.00  0.00    +0.143 C 
BRANCH  24  25
ATOM     25  N   UNL     1      -1.273   2.355   0.418  0.00  0.00    -0.320 NA
ATOM     26  H1  UNL     1      -1.085   2.555   1.395  0.00  0.00    +0.119 HD
ATOM     27  H2  UNL     1      -1.113   1.350   0.287  0.00  0.00    +0.119 HD
ENDBRANCH  24  25
BRANCH  24  29
ATOM     28  C   UNL     1       2.179   3.141  -0.581  0.00  0.00    +0.012 C 
ATOM     29  C   UNL     1       0.932   2.253  -0.768  0.00  0.00    +0.046 C 
BRANCH  29  30
ATOM     30  C   UNL     1       0.999   0.997   0.144  0.00  0.00    +0.168 C 
BRANCH  30  31
ATOM     31  C   UNL     1       1.565  -0.216  -0.586  0.00  0.00    +0.070 A 
ATOM     32  N   UNL     1       0.708  -1.256  -0.789  0.00  0.00    -0.254 NA
ATOM     33  C   UNL     1       1.209  -2.366  -1.381  0.00  0.00    +0.156 A 
ATOM     34  C   UNL     1       2.528  -2.487  -1.786  0.00  0.00    +0.135 A 
ATOM     35  C   UNL     1       3.385  -1.416  -1.588  0.00  0.00    +0.049 A 
ATOM     36  C   UNL     1       2.901  -0.258  -0.981  0.00  0.00    +0.029 A 
BRANCH  34  37
ATOM     37  O   UNL     1       3.025  -3.611  -2.370  0.00  0.00    -0.505 OA
ATOM     38  H   UNL     1       3.987  -3.523  -2.472  0.00  0.00    +0.292 HD
ENDBRANCH  34  37
ENDBRANCH  30  31
BRANCH  30  39
ATOM     39  O   UNL     1       1.818   1.288   1.285  0.00  0.00    -0.385 OA
ATOM     40  H   UNL     1       2.405   0.507   1.382  0.00  0.00    +0.210 HD
ENDBRANCH  30  39
ENDBRANCH  29  30
ENDBRANCH  24  29
ENDBRANCH  20  24
ENDBRANCH   1  22
BRANCH   1  41
ATOM     41  C   UNL     1      -4.583   4.902  -2.159  0.00  0.00    +0.328 C 
ATOM     42  O   UNL     1      -5.146   5.809  -2.755  0.00  0.00    -0.249 OA
BRANCH  41  43
ATOM     43  OXT UNL     1      -5.000   4.461  -0.947  0.00  0.00    -0.479 OA
ATOM     44  HXT UNL     1      -5.161   5.214  -0.342  0.00  0.00    +0.295 HD
ENDBRANCH  41  43
ENDBRANCH   1  41
TORSDOF 15
ENDMDL
MODEL 4
REMARK VINA RESULT:    -8.189      2.383      8.381
REMARK INTER + INTRA:         -15.710
REMARK INTER:                 -13.751
REMARK INTRA:                  -1.958
REMARK UNBOUND:                -1.776
REMARK  Name = 
REMARK  16 active torsions:
REMARK  status: ('A' for Active; 'I' for Inactive)
REMARK    1  A    between atoms: C_1  and  C_2
REMARK    2  A    between atoms: C_2  and  C_3
REMARK    3  A    between atoms: C_2  and  CA_12
REMARK    4  A    between atoms: C_3  and  C_4
REMARK    5  A    between atoms: C_3  and  O_11
REMARK    6  A    between atoms: C_7  and  O_10
REMARK    7  A    between atoms: CA_12  and  C_13
REMARK    8  A    between atoms: CA_12  and  N_35
REMARK    9  A    between atoms: N_15  and  CA_16
REMARK   10  A    between atoms: CA_16  and  C_17
REMARK   11  A    between atoms: CA_16  and  C_32
REMARK   12  A    between atoms: C_18  and  O_31
REMARK   13  A    between atoms: C_19  and  O_30
REMARK   14  A    between atoms: C_20  and  N_22
REMARK   15  A    between atoms: CA_24  and  C_28
REMARK   16  A    between atoms: C_32  and  OXT_34
REMARK                            x       y       z     vdW  Elec       q    Type
REMARK                         _______ _______ _______ _____ _____    ______ ____
ROOT
ATOM      1  CA  UNL     1      -1.899   3.506  -3.195  0.00  0.00    +0.213 C 
ENDROOT
BRANCH   1   2
ATOM      2  C   UNL     1      -0.715   4.099  -2.410  0.00  0.00    +0.183 C 
ATOM      3  C   UNL     1      -1.012   4.543  -0.974  0.00  0.00    +0.178 C 
ATOM      4  C   UNL     1      -0.120   5.773  -0.762  0.00  0.00    +0.195 C 
ATOM      5  C   UNL     1       0.710   5.871  -2.053  0.00  0.00    +0.255 C 
ATOM      6  O   UNL     1      -0.089   5.212  -3.059  0.00  0.00    -0.345 OA
BRANCH   5   7
ATOM      7  N   UNL     1       2.030   5.272  -2.007  0.00  0.00    -0.270 N 
ATOM      8  C   UNL     1       2.403   4.052  -1.481  0.00  0.00    +0.122 A 
ATOM      9  CA  UNL     1       3.723   3.917  -1.592  0.00  0.00    +0.099 A 
ATOM     10  N   UNL     1       4.239   5.034  -2.198  0.00  0.00    -0.304 N 
ATOM     11  C   UNL     1       3.190   5.930  -2.471  0.00  0.00    +0.329 A 
ATOM     12  O   UNL     1       3.300   7.029  -2.980  0.00  0.00    -0.246 OA
ATOM     13  H   UNL     1       5.205   5.239  -2.404  0.00  0.00    +0.171 HD
BRANCH   9  14
ATOM     14  C   UNL     1       4.510   2.762  -1.123  0.00  0.00    +0.278 C 
ATOM     15  O   UNL     1       4.309   1.624  -1.523  0.00  0.00    -0.294 OA
ENDBRANCH   9  14
ENDBRANCH   5   7
BRANCH   4  16
ATOM     16  O   UNL     1       0.637   5.730   0.444  0.00  0.00    -0.385 OA
ATOM     17  H   UNL     1       1.434   6.274   0.280  0.00  0.00    +0.210 HD
ENDBRANCH   4  16
BRANCH   3  18
ATOM     18  O   UNL     1      -0.706   3.540  -0.001  0.00  0.00    -0.386 OA
ATOM     19  H   UNL     1      -0.734   2.649  -0.410  0.00  0.00    +0.210 HD
ENDBRANCH   3  18
ENDBRANCH   1   2
BRANCH   1  22
ATOM     20  C   UNL     1      -3.782   5.126  -3.326  0.00  0.00    +0.231 C 
ATOM     21  O   UNL     1      -3.269   5.713  -4.272  0.00  0.00    -0.274 OA
ATOM     22  N   UNL     1      -3.235   3.974  -2.787  0.00  0.00    -0.299 N 
ATOM     23  H   UNL     1      -3.636   3.611  -1.929  0.00  0.00    +0.150 HD
BRANCH  20  24
ATOM     24  CA  UNL     1      -5.149   5.549  -2.726  0.00  0.00    +0.143 C 
BRANCH  24  25
ATOM     25  N   UNL     1      -5.705   6.618  -3.586  0.00  0.00    -0.320 NA
ATOM     26  H1  UNL     1      -6.048   6.250  -4.467  0.00  0.00    +0.119 HD
ATOM     27  H2  UNL     1      -4.942   7.265  -3.815  0.00  0.00    +0.119 HD
ENDBRANCH  24  25
BRANCH  24  29
ATOM     28  C   UNL     1      -7.357   4.829  -1.730  0.00  0.00    +0.012 C 
ATOM     29  C   UNL     1      -6.145   4.372  -2.566  0.00  0.00    +0.046 C 
BRANCH  29  30
ATOM     30  C   UNL     1      -6.594   3.833  -3.952  0.00  0.00    +0.168 C 
BRANCH  30  31
ATOM     31  C   UNL     1      -6.619   2.309  -3.997  0.00  0.00    +0.070 A 
ATOM     32  N   UNL     1      -5.408   1.684  -4.039  0.00  0.00    -0.254 NA
ATOM     33  C   UNL     1      -5.410   0.335  -4.141  0.00  0.00    +0.156 A 
ATOM     34  C   UNL     1      -6.565  -0.427  -4.199  0.00  0.00    +0.135 A 
ATOM     35  C   UNL     1      -7.790   0.220  -4.140  0.00  0.00    +0.049 A 
ATOM     36  C   UNL     1      -7.824   1.610  -4.035  0.00  0.00    +0.029 A 
BRANCH  34  37
ATOM     37  O   UNL     1      -6.557  -1.783  -4.313  0.00  0.00    -0.505 OA
ATOM     38  H   UNL     1      -7.048  -2.042  -5.110  0.00  0.00    +0.292 HD
ENDBRANCH  34  37
ENDBRANCH  30  31
BRANCH  30  39
ATOM     39  O   UNL     1      -7.905   4.336  -4.250  0.00  0.00    -0.385 OA
ATOM     40  H   UNL     1      -8.379   3.582  -4.661  0.00  0.00    +0.210 HD
ENDBRANCH  30  39
ENDBRANCH  29  30
ENDBRANCH  24  29
ENDBRANCH  20  24
ENDBRANCH   1  22
BRANCH   1  41
ATOM     41  C   UNL     1      -1.834   1.979  -3.091  0.00  0.00    +0.328 C 
ATOM     42  O   UNL     1      -1.561   1.367  -2.069  0.00  0.00    -0.249 OA
BRANCH  41  43
ATOM     43  OXT UNL     1      -2.088   1.353  -4.266  0.00  0.00    -0.479 OA
ATOM     44  HXT UNL     1      -1.436   1.619  -4.947  0.00  0.00    +0.295 HD
ENDBRANCH  41  43
ENDBRANCH   1  41
TORSDOF 15
ENDMDL
MODEL 5
REMARK VINA RESULT:    -8.170      4.426      7.590
REMARK INTER + INTRA:         -15.677
REMARK INTER:                 -14.235
REMARK INTRA:                  -1.442
REMARK UNBOUND:                -1.776
REMARK  Name = 
REMARK  16 active torsions:
REMARK  status: ('A' for Active; 'I' for Inactive)
REMARK    1  A    between atoms: C_1  and  C_2
REMARK    2  A    between atoms: C_2  and  C_3
REMARK    3  A    between atoms: C_2  and  CA_12
REMARK    4  A    between atoms: C_3  and  C_4
REMARK    5  A    between atoms: C_3  and  O_11
REMARK    6  A    between atoms: C_7  and  O_10
REMARK    7  A    between atoms: CA_12  and  C_13
REMARK    8  A    between atoms: CA_12  and  N_35
REMARK    9  A    between atoms: N_15  and  CA_16
REMARK   10  A    between atoms: CA_16  and  C_17
REMARK   11  A    between atoms: CA_16  and  C_32
REMARK   12  A    between atoms: C_18  and  O_31
REMARK   13  A    between atoms: C_19  and  O_30
REMARK   14  A    between atoms: C_20  and  N_22
REMARK   15  A    between atoms: CA_24  and  C_28
REMARK   16  A    between atoms: C_32  and  OXT_34
REMARK                            x       y       z     vdW  Elec       q    Type
REMARK                         _______ _______ _______ _____ _____    ______ ____
ROOT
ATOM      1  CA  UNL     1       2.548  -0.655  -0.524  0.00  0.00    +0.213 C 
ENDROOT
BRANCH   1   2
ATOM      2  C   UNL     1       2.625  -2.190  -0.607  0.00  0.00    +0.183 C 
ATOM      3  C   UNL     1       1.298  -2.941  -0.450  0.00  0.00    +0.178 C 
ATOM      4  C   UNL     1       1.676  -4.233   0.287  0.00  0.00    +0.195 C 
ATOM      5  C   UNL     1       3.209  -4.180   0.391  0.00  0.00    +0.255 C 
ATOM      6  O   UNL     1       3.537  -2.775   0.330  0.00  0.00    -0.345 OA
BRANCH   5   7
ATOM      7  N   UNL     1       3.941  -4.899  -0.634  0.00  0.00    -0.270 N 
ATOM      8  C   UNL     1       3.450  -5.536  -1.756  0.00  0.00    +0.122 A 
ATOM      9  CA  UNL     1       4.457  -6.122  -2.398  0.00  0.00    +0.099 A 
ATOM     10  N   UNL     1       5.625  -5.875  -1.722  0.00  0.00    -0.304 N 
ATOM     11  C   UNL     1       5.337  -5.104  -0.582  0.00  0.00    +0.329 A 
ATOM     12  O   UNL     1       6.139  -4.730   0.252  0.00  0.00    -0.246 OA
ATOM     13  H   UNL     1       6.553  -6.199  -1.948  0.00  0.00    +0.171 HD
BRANCH   9  14
ATOM     14  C   UNL     1       4.339  -6.925  -3.630  0.00  0.00    +0.278 C 
ATOM     15  O   UNL     1       5.271  -7.079  -4.405  0.00  0.00    -0.294 OA
ENDBRANCH   9  14
ENDBRANCH   5   7
BRANCH   4  16
ATOM     16  O   UNL     1       1.149  -5.411  -0.318  0.00  0.00    -0.385 OA
ATOM     17  H   UNL     1       0.326  -5.134  -0.770  0.00  0.00    +0.210 HD
ENDBRANCH   4  16
BRANCH   3  18
ATOM     18  O   UNL     1       0.676  -3.251  -1.700  0.00  0.00    -0.386 OA
ATOM     19  H   UNL     1       1.334  -3.212  -2.426  0.00  0.00    +0.210 HD
ENDBRANCH   3  18
ENDBRANCH   1   2
BRANCH   1  22
ATOM     20  C   UNL     1       0.571   0.810  -0.159  0.00  0.00    +0.231 C 
ATOM     21  O   UNL     1       1.029   1.241   0.893  0.00  0.00    -0.274 OA
ATOM     22  N   UNL     1       1.281  -0.052  -0.976  0.00  0.00    -0.299 N 
ATOM     23  H   UNL     1       0.799  -0.470  -1.764  0.00  0.00    +0.150 HD
BRANCH  20  24
ATOM     24  CA  UNL     1      -0.793   1.284  -0.728  0.00  0.00    +0.143 C 
BRANCH  24  25
ATOM     25  N   UNL     1      -1.703   1.511   0.418  0.00  0.00    -0.320 NA
ATOM     26  H1  UNL     1      -2.151   0.651   0.716  0.00  0.00    +0.119 HD
ATOM     27  H2  UNL     1      -2.450   2.140   0.105  0.00  0.00    +0.119 HD
ENDBRANCH  24  25
BRANCH  24  29
ATOM     28  C   UNL     1      -2.012   2.757  -2.380  0.00  0.00    +0.012 C 
ATOM     29  C   UNL     1      -0.684   2.543  -1.626  0.00  0.00    +0.046 C 
BRANCH  29  30
ATOM     30  C   UNL     1      -0.310   3.794  -0.785  0.00  0.00    +0.168 C 
BRANCH  30  31
ATOM     31  C   UNL     1       0.863   4.562  -1.384  0.00  0.00    +0.070 A 
ATOM     32  N   UNL     1       1.903   3.813  -1.848  0.00  0.00    -0.254 NA
ATOM     33  C   UNL     1       2.981   4.479  -2.327  0.00  0.00    +0.156 A 
ATOM     34  C   UNL     1       3.069   5.860  -2.372  0.00  0.00    +0.135 A 
ATOM     35  C   UNL     1       1.997   6.609  -1.912  0.00  0.00    +0.049 A 
ATOM     36  C   UNL     1       0.872   5.955  -1.411  0.00  0.00    +0.029 A 
BRANCH  34  37
ATOM     37  O   UNL     1       4.161   6.520  -2.846  0.00  0.00    -0.505 OA
ATOM     38  H   UNL     1       3.882   7.155  -3.526  0.00  0.00    +0.292 HD
ENDBRANCH  34  37
ENDBRANCH  30  31
BRANCH  30  39
ATOM     39  O   UNL     1      -1.450   4.662  -0.702  0.00  0.00    -0.385 OA
ATOM     40  H   UNL     1      -1.753   4.773  -1.628  0.00  0.00    +0.210 HD
ENDBRANCH  30  39
ENDBRANCH  29  30
ENDBRANCH  24  29
ENDBRANCH  20  24
ENDBRANCH   1  22
BRANCH   1  41
ATOM     41  C   UNL     1       3.713  -0.067  -1.327  0.00  0.00    +0.328 C 
ATOM     42  O   UNL     1       3.988   1.123  -1.376  0.00  0.00    -0.249 OA
BRANCH  41  43
ATOM     43  OXT UNL     1       4.414  -1.004  -2.012  0.00  0.00    -0.479 OA
ATOM     44  HXT UNL     1       4.378  -0.828  -2.974  0.00  0.00    +0.295 HD
ENDBRANCH  41  43
ENDBRANCH   1  41
TORSDOF 15
ENDMDL
MODEL 6
REMARK VINA RESULT:    -8.048      3.199      8.684
REMARK INTER + INTRA:         -15.470
REMARK INTER:                 -14.038
REMARK INTRA:                  -1.432
REMARK UNBOUND:                -1.776
REMARK  Name = 
REMARK  16 active torsions:
REMARK  status: ('A' for Active; 'I' for Inactive)
REMARK    1  A    between atoms: C_1  and  C_2
REMARK    2  A    between atoms: C_2  and  C_3
REMARK    3  A    between atoms: C_2  and  CA_12
REMARK    4  A    between atoms: C_3  and  C_4
REMARK    5  A    between atoms: C_3  and  O_11
REMARK    6  A    between atoms: C_7  and  O_10
REMARK    7  A    between atoms: CA_12  and  C_13
REMARK    8  A    between atoms: CA_12  and  N_35
REMARK    9  A    between atoms: N_15  and  CA_16
REMARK   10  A    between atoms: CA_16  and  C_17
REMARK   11  A    between atoms: CA_16  and  C_32
REMARK   12  A    between atoms: C_18  and  O_31
REMARK   13  A    between atoms: C_19  and  O_30
REMARK   14  A    between atoms: C_20  and  N_22
REMARK   15  A    between atoms: CA_24  and  C_28
REMARK   16  A    between atoms: C_32  and  OXT_34
REMARK                            x       y       z     vdW  Elec       q    Type
REMARK                         _______ _______ _______ _____ _____    ______ ____
ROOT
ATOM      1  CA  UNL     1      -1.544   4.193  -3.405  0.00  0.00    +0.213 C 
ENDROOT
BRANCH   1   2
ATOM      2  C   UNL     1      -0.336   4.266  -2.454  0.00  0.00    +0.183 C 
ATOM      3  C   UNL     1      -0.461   5.240  -1.278  0.00  0.00    +0.178 C 
ATOM      4  C   UNL     1       0.962   5.777  -1.074  0.00  0.00    +0.195 C 
ATOM      5  C   UNL     1       1.818   4.980  -2.072  0.00  0.00    +0.255 C 
ATOM      6  O   UNL     1       0.899   4.575  -3.110  0.00  0.00    -0.345 OA
BRANCH   5   7
ATOM      7  N   UNL     1       2.497   3.816  -1.538  0.00  0.00    -0.270 N 
ATOM      8  C   UNL     1       1.949   2.637  -1.073  0.00  0.00    +0.122 A 
ATOM      9  CA  UNL     1       2.925   1.855  -0.616  0.00  0.00    +0.099 A 
ATOM     10  N   UNL     1       4.127   2.495  -0.781  0.00  0.00    -0.304 N 
ATOM     11  C   UNL     1       3.897   3.756  -1.359  0.00  0.00    +0.329 A 
ATOM     12  O   UNL     1       4.742   4.592  -1.616  0.00  0.00    -0.246 OA
ATOM     13  H   UNL     1       5.044   2.170  -0.516  0.00  0.00    +0.171 HD
BRANCH   9  14
ATOM     14  C   UNL     1       2.745   0.522  -0.013  0.00  0.00    +0.278 C 
ATOM     15  O   UNL     1       1.647   0.088   0.305  0.00  0.00    -0.294 OA
ENDBRANCH   9  14
ENDBRANCH   5   7
BRANCH   4  16
ATOM     16  O   UNL     1       1.403   5.727   0.280  0.00  0.00    -0.385 OA
ATOM     17  H   UNL     1       1.442   6.657   0.583  0.00  0.00    +0.210 HD
ENDBRANCH   4  16
BRANCH   3  18
ATOM     18  O   UNL     1      -0.929   4.617  -0.079  0.00  0.00    -0.386 OA
ATOM     19  H   UNL     1      -1.266   5.292   0.547  0.00  0.00    +0.210 HD
ENDBRANCH   3  18
ENDBRANCH   1   2
BRANCH   1  22
ATOM     20  C   UNL     1      -3.995   4.554  -3.176  0.00  0.00    +0.231 C 
ATOM     21  O   UNL     1      -4.028   5.266  -4.172  0.00  0.00    -0.274 OA
ATOM     22  N   UNL     1      -2.842   3.903  -2.771  0.00  0.00    -0.299 N 
ATOM     23  H   UNL     1      -2.849   3.434  -1.872  0.00  0.00    +0.150 HD
BRANCH  20  24
ATOM     24  CA  UNL     1      -5.265   4.221  -2.348  0.00  0.00    +0.143 C 
BRANCH  24  25
ATOM     25  N   UNL     1      -5.076   4.784  -0.992  0.00  0.00    -0.320 NA
ATOM     26  H1  UNL     1      -5.151   5.795  -0.992  0.00  0.00    +0.119 HD
ATOM     27  H2  UNL     1      -4.122   4.559  -0.689  0.00  0.00    +0.119 HD
ENDBRANCH  24  25
BRANCH  24  29
ATOM     28  C   UNL     1      -7.465   3.529  -3.380  0.00  0.00    +0.012 C 
ATOM     29  C   UNL     1      -6.577   4.730  -2.998  0.00  0.00    +0.046 C 
BRANCH  29  30
ATOM     30  C   UNL     1      -7.329   5.701  -2.045  0.00  0.00    +0.168 C 
BRANCH  30  31
ATOM     31  C   UNL     1      -7.152   7.160  -2.452  0.00  0.00    +0.070 A 
ATOM     32  N   UNL     1      -7.409   8.092  -1.491  0.00  0.00    -0.254 NA
ATOM     33  C   UNL     1      -7.317   9.394  -1.851  0.00  0.00    +0.156 A 
ATOM     34  C   UNL     1      -6.975   9.813  -3.125  0.00  0.00    +0.135 A 
ATOM     35  C   UNL     1      -6.701   8.855  -4.088  0.00  0.00    +0.049 A 
ATOM     36  C   UNL     1      -6.787   7.505  -3.752  0.00  0.00    +0.029 A 
BRANCH  34  37
ATOM     37  O   UNL     1      -6.896  11.125  -3.480  0.00  0.00    -0.505 OA
ATOM     38  H   UNL     1      -7.004  11.679  -2.689  0.00  0.00    +0.292 HD
ENDBRANCH  34  37
ENDBRANCH  30  31
BRANCH  30  39
ATOM     39  O   UNL     1      -8.726   5.375  -2.049  0.00  0.00    -0.385 OA
ATOM     40  H   UNL     1      -9.135   6.001  -1.415  0.00  0.00    +0.210 HD
ENDBRANCH  30  39
ENDBRANCH  29  30
ENDBRANCH  24  29
ENDBRANCH  20  24
ENDBRANCH   1  22
BRANCH   1  41
ATOM     41  C   UNL     1      -1.252   3.144  -4.482  0.00  0.00    +0.328 C 
ATOM     42  O   UNL     1      -1.846   2.081  -4.591  0.00  0.00    -0.249 OA
BRANCH  41  43
ATOM     43  OXT UNL     1      -0.236   3.496  -5.308  0.00  0.00    -0.479 OA
ATOM     44  HXT UNL     1      -0.577   3.978  -6.089  0.00  0.00    +0.295 HD
ENDBRANCH  41  43
ENDBRANCH   1  41
TORSDOF 15
ENDMDL
MODEL 7
REMARK VINA RESULT:    -8.013      2.888      4.297
REMARK INTER + INTRA:         -15.409
REMARK INTER:                 -13.877
REMARK INTRA:                  -1.533
REMARK UNBOUND:                -1.776
REMARK  Name = 
REMARK  16 active torsions:
REMARK  status: ('A' for Active; 'I' for Inactive)
REMARK    1  A    between atoms: C_1  and  C_2
REMARK    2  A    between atoms: C_2  and  C_3
REMARK    3  A    between atoms: C_2  and  CA_12
REMARK    4  A    between atoms: C_3  and  C_4
REMARK    5  A    between atoms: C_3  and  O_11
REMARK    6  A    between atoms: C_7  and  O_10
REMARK    7  A    between atoms: CA_12  and  C_13
REMARK    8  A    between atoms: CA_12  and  N_35
REMARK    9  A    between atoms: N_15  and  CA_16
REMARK   10  A    between atoms: CA_16  and  C_17
REMARK   11  A    between atoms: CA_16  and  C_32
REMARK   12  A    between atoms: C_18  and  O_31
REMARK   13  A    between atoms: C_19  and  O_30
REMARK   14  A    between atoms: C_20  and  N_22
REMARK   15  A    between atoms: CA_24  and  C_28
REMARK   16  A    between atoms: C_32  and  OXT_34
REMARK                            x       y       z     vdW  Elec       q    Type
REMARK                         _______ _______ _______ _____ _____    ______ ____
ROOT
ATOM      1  CA  UNL     1      -2.142   1.725  -4.081  0.00  0.00    +0.213 C 
ENDROOT
BRANCH   1   2
ATOM      2  C   UNL     1      -3.605   1.338  -3.796  0.00  0.00    +0.183 C 
ATOM      3  C   UNL     1      -3.826  -0.037  -3.157  0.00  0.00    +0.178 C 
ATOM      4  C   UNL     1      -5.148  -0.530  -3.761  0.00  0.00    +0.195 C 
ATOM      5  C   UNL     1      -5.645   0.651  -4.611  0.00  0.00    +0.255 C 
ATOM      6  O   UNL     1      -4.453   1.392  -4.950  0.00  0.00    -0.345 OA
BRANCH   5   7
ATOM      7  N   UNL     1      -6.605   1.532  -3.975  0.00  0.00    -0.270 N 
ATOM      8  C   UNL     1      -6.378   2.730  -3.329  0.00  0.00    +0.122 A 
ATOM      9  CA  UNL     1      -7.529   3.183  -2.836  0.00  0.00    +0.099 A 
ATOM     10  N   UNL     1      -8.531   2.303  -3.157  0.00  0.00    -0.304 N 
ATOM     11  C   UNL     1      -7.981   1.228  -3.877  0.00  0.00    +0.329 A 
ATOM     12  O   UNL     1      -8.586   0.258  -4.292  0.00  0.00    -0.246 OA
ATOM     13  H   UNL     1      -9.508   2.358  -2.910  0.00  0.00    +0.171 HD
BRANCH   9  14
ATOM     14  C   UNL     1      -7.700   4.423  -2.056  0.00  0.00    +0.278 C 
ATOM     15  O   UNL     1      -8.536   4.531  -1.171  0.00  0.00    -0.294 OA
ENDBRANCH   9  14
ENDBRANCH   5   7
BRANCH   4  16
ATOM     16  O   UNL     1      -6.074  -1.013  -2.792  0.00  0.00    -0.385 OA
ATOM     17  H   UNL     1      -5.761  -1.907  -2.545  0.00  0.00    +0.210 HD
ENDBRANCH   4  16
BRANCH   3  18
ATOM     18  O   UNL     1      -3.926   0.016  -1.732  0.00  0.00    -0.386 OA
ATOM     19  H   UNL     1      -3.650   0.897  -1.403  0.00  0.00    +0.210 HD
ENDBRANCH   3  18
ENDBRANCH   1   2
BRANCH   1  22
ATOM     20  C   UNL     1      -1.714   2.657  -1.814  0.00  0.00    +0.231 C 
ATOM     21  O   UNL     1      -2.866   3.063  -1.716  0.00  0.00    -0.274 OA
ATOM     22  N   UNL     1      -1.286   1.905  -2.896  0.00  0.00    -0.299 N 
ATOM     23  H   UNL     1      -0.294   1.710  -2.979  0.00  0.00    +0.150 HD
BRANCH  20  24
ATOM     24  CA  UNL     1      -0.666   2.843  -0.685  0.00  0.00    +0.143 C 
BRANCH  24  25
ATOM     25  N   UNL     1      -1.273   2.358   0.575  0.00  0.00    -0.320 NA
ATOM     26  H1  UNL     1      -1.589   1.398   0.493  0.00  0.00    +0.119 HD
ATOM     27  H2  UNL     1      -2.105   2.927   0.762  0.00  0.00    +0.119 HD
ENDBRANCH  24  25
BRANCH  24  29
ATOM     28  C   UNL     1       1.822   3.181  -0.968  0.00  0.00    +0.012 C 
ATOM     29  C   UNL     1       0.685   2.140  -0.974  0.00  0.00    +0.046 C 
BRANCH  29  30
ATOM     30  C   UNL     1       0.956   1.011   0.059  0.00  0.00    +0.168 C 
BRANCH  30  31
ATOM     31  C   UNL     1       1.640  -0.196  -0.573  0.00  0.00    +0.070 A 
ATOM     32  N   UNL     1       2.953  -0.043  -0.904  0.00  0.00    -0.254 NA
ATOM     33  C   UNL     1       3.562  -1.083  -1.522  0.00  0.00    +0.156 A 
ATOM     34  C   UNL     1       2.923  -2.275  -1.822  0.00  0.00    +0.135 A 
ATOM     35  C   UNL     1       1.591  -2.422  -1.466  0.00  0.00    +0.049 A 
ATOM     36  C   UNL     1       0.935  -1.370  -0.828  0.00  0.00    +0.029 A 
BRANCH  34  37
ATOM     37  O   UNL     1       3.540  -3.310  -2.453  0.00  0.00    -0.505 OA
ATOM     38  H   UNL     1       3.112  -4.144  -2.198  0.00  0.00    +0.292 HD
ENDBRANCH  34  37
ENDBRANCH  30  31
BRANCH  30  39
ATOM     39  O   UNL     1       1.783   1.526   1.112  0.00  0.00    -0.385 OA
ATOM     40  H   UNL     1       1.589   0.958   1.888  0.00  0.00    +0.210 HD
ENDBRANCH  30  39
ENDBRANCH  29  30
ENDBRANCH  24  29
ENDBRANCH  20  24
ENDBRANCH   1  22
BRANCH   1  41
ATOM     41  C   UNL     1      -2.135   3.006  -4.921  0.00  0.00    +0.328 C 
ATOM     42  O   UNL     1      -1.264   3.299  -5.728  0.00  0.00    -0.249 OA
BRANCH  41  43
ATOM     43  OXT UNL     1      -3.192   3.816  -4.668  0.00  0.00    -0.479 OA
ATOM     44  HXT UNL     1      -4.017   3.429  -5.026  0.00  0.00    +0.295 HD
ENDBRANCH  41  43
ENDBRANCH   1  41
TORSDOF 15
ENDMDL
MODEL 8
REMARK VINA RESULT:    -7.977      6.724      9.740
REMARK INTER + INTRA:         -15.350
REMARK INTER:                 -13.314
REMARK INTRA:                  -2.035
REMARK UNBOUND:                -1.776
REMARK  Name = 
REMARK  16 active torsions:
REMARK  status: ('A' for Active; 'I' for Inactive)
REMARK    1  A    between atoms: C_1  and  C_2
REMARK    2  A    between atoms: C_2  and  C_3
REMARK    3  A    between atoms: C_2  and  CA_12
REMARK    4  A    between atoms: C_3  and  C_4
REMARK    5  A    between atoms: C_3  and  O_11
REMARK    6  A    between atoms: C_7  and  O_10
REMARK    7  A    between atoms: CA_12  and  C_13
REMARK    8  A    between atoms: CA_12  and  N_35
REMARK    9  A    between atoms: N_15  and  CA_16
REMARK   10  A    between atoms: CA_16  and  C_17
REMARK   11  A    between atoms: CA_16  and  C_32
REMARK   12  A    between atoms: C_18  and  O_31
REMARK   13  A    between atoms: C_19  and  O_30
REMARK   14  A    between atoms: C_20  and  N_22
REMARK   15  A    between atoms: CA_24  and  C_28
REMARK   16  A    between atoms: C_32  and  OXT_34
REMARK                            x       y       z     vdW  Elec       q    Type
REMARK                         _______ _______ _______ _____ _____    ______ ____
ROOT
ATOM      1  CA  UNL     1      -6.381   4.591  -5.125  0.00  0.00    +0.213 C 
ENDROOT
BRANCH   1   2
ATOM      2  C   UNL     1      -6.637   5.381  -3.829  0.00  0.00    +0.183 C 
ATOM      3  C   UNL     1      -6.123   4.740  -2.535  0.00  0.00    +0.178 C 
ATOM      4  C   UNL     1      -7.159   5.135  -1.475  0.00  0.00    +0.195 C 
ATOM      5  C   UNL     1      -8.127   6.073  -2.216  0.00  0.00    +0.255 C 
ATOM      6  O   UNL     1      -8.017   5.696  -3.606  0.00  0.00    -0.345 OA
BRANCH   5   7
ATOM      7  N   UNL     1      -7.871   7.493  -2.072  0.00  0.00    -0.270 N 
ATOM      8  C   UNL     1      -7.247   8.350  -2.955  0.00  0.00    +0.122 A 
ATOM      9  CA  UNL     1      -7.167   9.559  -2.405  0.00  0.00    +0.099 A 
ATOM     10  N   UNL     1      -7.744   9.524  -1.160  0.00  0.00    -0.304 N 
ATOM     11  C   UNL     1      -8.199   8.219  -0.905  0.00  0.00    +0.329 A 
ATOM     12  O   UNL     1      -8.735   7.833   0.116  0.00  0.00    -0.246 OA
ATOM     13  H   UNL     1      -7.823  10.275  -0.492  0.00  0.00    +0.171 HD
BRANCH   9  14
ATOM     14  C   UNL     1      -6.544  10.744  -3.022  0.00  0.00    +0.278 C 
ATOM     15  O   UNL     1      -6.947  11.227  -4.070  0.00  0.00    -0.294 OA
ENDBRANCH   9  14
ENDBRANCH   5   7
BRANCH   4  16
ATOM     16  O   UNL     1      -6.585   5.672  -0.287  0.00  0.00    -0.385 OA
ATOM     17  H   UNL     1      -7.338   5.915   0.289  0.00  0.00    +0.210 HD
ENDBRANCH   4  16
BRANCH   3  18
ATOM     18  O   UNL     1      -4.826   5.207  -2.154  0.00  0.00    -0.386 OA
ATOM     19  H   UNL     1      -4.656   6.092  -2.539  0.00  0.00    +0.210 HD
ENDBRANCH   3  18
ENDBRANCH   1   2
BRANCH   1  22
ATOM     20  C   UNL     1      -7.434   2.336  -5.087  0.00  0.00    +0.231 C 
ATOM     21  O   UNL     1      -8.508   2.784  -5.471  0.00  0.00    -0.274 OA
ATOM     22  N   UNL     1      -6.302   3.127  -4.977  0.00  0.00    -0.299 N 
ATOM     23  H   UNL     1      -5.482   2.727  -4.534  0.00  0.00    +0.150 HD
BRANCH  20  24
ATOM     24  CA  UNL     1      -7.213   0.826  -4.805  0.00  0.00    +0.143 C 
BRANCH  24  25
ATOM     25  N   UNL     1      -8.500   0.134  -5.038  0.00  0.00    -0.320 NA
ATOM     26  H1  UNL     1      -8.664  -0.594  -4.352  0.00  0.00    +0.119 HD
ATOM     27  H2  UNL     1      -8.447  -0.329  -5.952  0.00  0.00    +0.119 HD
ENDBRANCH  24  25
BRANCH  24  29
ATOM     28  C   UNL     1      -5.764  -1.218  -5.128  0.00  0.00    +0.012 C 
ATOM     29  C   UNL     1      -6.070   0.202  -5.645  0.00  0.00    +0.046 C 
BRANCH  29  30
ATOM     30  C   UNL     1      -6.439   0.179  -7.154  0.00  0.00    +0.168 C 
BRANCH  30  31
ATOM     31  C   UNL     1      -5.431   0.944  -8.006  0.00  0.00    +0.070 A 
ATOM     32  N   UNL     1      -4.616   1.813  -7.344  0.00  0.00    -0.254 NA
ATOM     33  C   UNL     1      -3.757   2.547  -8.090  0.00  0.00    +0.156 A 
ATOM     34  C   UNL     1      -3.667   2.451  -9.469  0.00  0.00    +0.135 A 
ATOM     35  C   UNL     1      -4.491   1.551 -10.127  0.00  0.00    +0.049 A 
ATOM     36  C   UNL     1      -5.388   0.781  -9.389  0.00  0.00    +0.029 A 
BRANCH  34  37
ATOM     37  O   UNL     1      -2.807   3.200 -10.212  0.00  0.00    -0.505 OA
ATOM     38  H   UNL     1      -2.760   2.839 -11.112  0.00  0.00    +0.292 HD
ENDBRANCH  34  37
ENDBRANCH  30  31
BRANCH  30  39
ATOM     39  O   UNL     1      -6.500  -1.182  -7.603  0.00  0.00    -0.385 OA
ATOM     40  H   UNL     1      -7.453  -1.412  -7.589  0.00  0.00    +0.210 HD
ENDBRANCH  30  39
ENDBRANCH  29  30
ENDBRANCH  24  29
ENDBRANCH  20  24
ENDBRANCH   1  22
BRANCH   1  41
ATOM     41  C   UNL     1      -5.092   5.114  -5.765  0.00  0.00    +0.328 C 
ATOM     42  O   UNL     1      -5.054   5.885  -6.713  0.00  0.00    -0.249 OA
BRANCH  41  43
ATOM     43  OXT UNL     1      -3.970   4.616  -5.190  0.00  0.00    -0.479 OA
ATOM     44  HXT UNL     1      -3.329   4.331  -5.872  0.00  0.00    +0.295 HD
ENDBRANCH  41  43
ENDBRANCH   1  41
TORSDOF 15
ENDMDL
MODEL 9
REMARK VINA RESULT:    -7.948      4.510      8.747
REMARK INTER + INTRA:         -15.299
REMARK INTER:                 -13.276
REMARK INTRA:                  -2.023
REMARK UNBOUND:                -1.776
REMARK  Name = 
REMARK  16 active torsions:
REMARK  status: ('A' for Active; 'I' for Inactive)
REMARK    1  A    between atoms: C_1  and  C_2
REMARK    2  A    between atoms: C_2  and  C_3
REMARK    3  A    between atoms: C_2  and  CA_12
REMARK    4  A    between atoms: C_3  and  C_4
REMARK    5  A    between atoms: C_3  and  O_11
REMARK    6  A    between atoms: C_7  and  O_10
REMARK    7  A    between atoms: CA_12  and  C_13
REMARK    8  A    between atoms: CA_12  and  N_35
REMARK    9  A    between atoms: N_15  and  CA_16
REMARK   10  A    between atoms: CA_16  and  C_17
REMARK   11  A    between atoms: CA_16  and  C_32
REMARK   12  A    between atoms: C_18  and  O_31
REMARK   13  A    between atoms: C_19  and  O_30
REMARK   14  A    between atoms: C_20  and  N_22
REMARK   15  A    between atoms: CA_24  and  C_28
REMARK   16  A    between atoms: C_32  and  OXT_34
REMARK                            x       y       z     vdW  Elec       q    Type
REMARK                         _______ _______ _______ _____ _____    ______ ____
ROOT
ATOM      1  CA  UNL     1      -6.393   4.305  -4.507  0.00  0.00    +0.213 C 
ENDROOT
BRANCH   1   2
ATOM      2  C   UNL     1      -6.725   5.203  -3.302  0.00  0.00    +0.183 C 
ATOM      3  C   UNL     1      -6.372   4.638  -1.923  0.00  0.00    +0.178 C 
ATOM      4  C   UNL     1      -7.479   5.164  -0.999  0.00  0.00    +0.195 C 
ATOM      5  C   UNL     1      -8.318   6.089  -1.897  0.00  0.00    +0.255 C 
ATOM      6  O   UNL     1      -8.099   5.603  -3.239  0.00  0.00    -0.345 OA
BRANCH   5   7
ATOM      7  N   UNL     1      -7.997   7.502  -1.829  0.00  0.00    -0.270 N 
ATOM      8  C   UNL     1      -7.325   8.277  -2.752  0.00  0.00    +0.122 A 
ATOM      9  CA  UNL     1      -7.193   9.511  -2.269  0.00  0.00    +0.099 A 
ATOM     10  N   UNL     1      -7.781   9.573  -1.031  0.00  0.00    -0.304 N 
ATOM     11  C   UNL     1      -8.300   8.306  -0.709  0.00  0.00    +0.329 A 
ATOM     12  O   UNL     1      -8.862   8.005   0.326  0.00  0.00    -0.246 OA
ATOM     13  H   UNL     1      -7.830  10.363  -0.407  0.00  0.00    +0.171 HD
BRANCH   9  14
ATOM     14  C   UNL     1      -6.509  10.628  -2.945  0.00  0.00    +0.278 C 
ATOM     15  O   UNL     1      -6.906  11.099  -4.001  0.00  0.00    -0.294 OA
ENDBRANCH   9  14
ENDBRANCH   5   7
BRANCH   4  16
ATOM     16  O   UNL     1      -6.990   5.760   0.198  0.00  0.00    -0.385 OA
ATOM     17  H   UNL     1      -6.461   6.534  -0.085  0.00  0.00    +0.210 HD
ENDBRANCH   4  16
BRANCH   3  18
ATOM     18  O   UNL     1      -5.092   5.067  -1.450  0.00  0.00    -0.386 OA
ATOM     19  H   UNL     1      -4.402   4.416  -1.697  0.00  0.00    +0.210 HD
ENDBRANCH   3  18
ENDBRANCH   1   2
BRANCH   1  22
ATOM     20  C   UNL     1      -7.655   2.206  -4.951  0.00  0.00    +0.231 C 
ATOM     21  O   UNL     1      -8.325   2.743  -5.825  0.00  0.00    -0.274 OA
ATOM     22  N   UNL     1      -6.617   2.861  -4.310  0.00  0.00    -0.299 N 
ATOM     23  H   UNL     1      -6.187   2.408  -3.512  0.00  0.00    +0.150 HD
BRANCH  20  24
ATOM     24  CA  UNL     1      -7.829   0.713  -4.567  0.00  0.00    +0.143 C 
BRANCH  24  25
ATOM     25  N   UNL     1      -7.734  -0.083  -5.811  0.00  0.00    -0.320 NA
ATOM     26  H1  UNL     1      -6.787  -0.099  -6.174  0.00  0.00    +0.119 HD
ATOM     27  H2  UNL     1      -8.315   0.374  -6.522  0.00  0.00    +0.119 HD
ENDBRANCH  24  25
BRANCH  24  29
ATOM     28  C   UNL     1      -7.532  -0.673  -2.475  0.00  0.00    +0.012 C 
ATOM     29  C   UNL     1      -6.814   0.227  -3.501  0.00  0.00    +0.046 C 
BRANCH  29  30
ATOM     30  C   UNL     1      -5.626  -0.521  -4.165  0.00  0.00    +0.168 C 
BRANCH  30  31
ATOM     31  C   UNL     1      -4.315  -0.299  -3.419  0.00  0.00    +0.070 A 
ATOM     32  N   UNL     1      -3.866   0.987  -3.352  0.00  0.00    -0.254 NA
ATOM     33  C   UNL     1      -2.674   1.196  -2.746  0.00  0.00    +0.156 A 
ATOM     34  C   UNL     1      -1.906   0.182  -2.198  0.00  0.00    +0.135 A 
ATOM     35  C   UNL     1      -2.382  -1.118  -2.259  0.00  0.00    +0.049 A 
ATOM     36  C   UNL     1      -3.606  -1.369  -2.876  0.00  0.00    +0.029 A 
BRANCH  34  37
ATOM     37  O   UNL     1      -0.703   0.402  -1.601  0.00  0.00    -0.505 OA
ATOM     38  H   UNL     1       0.008   0.082  -2.181  0.00  0.00    +0.292 HD
ENDBRANCH  34  37
ENDBRANCH  30  31
BRANCH  30  39
ATOM     39  O   UNL     1      -5.916  -1.925  -4.203  0.00  0.00    -0.385 OA
ATOM     40  H   UNL     1      -5.948  -2.153  -5.157  0.00  0.00    +0.210 HD
ENDBRANCH  30  39
ENDBRANCH  29  30
ENDBRANCH  24  29
ENDBRANCH  20  24
ENDBRANCH   1  22
BRANCH   1  41
ATOM     41  C   UNL     1      -4.936   4.550  -4.909  0.00  0.00    +0.328 C 
ATOM     42  O   UNL     1      -4.585   5.276  -5.828  0.00  0.00    -0.249 OA
BRANCH  41  43
ATOM     43  OXT UNL     1      -4.050   3.857  -4.152  0.00  0.00    -0.479 OA
ATOM     44  HXT UNL     1      -4.369   3.781  -3.230  0.00  0.00    +0.295 HD
ENDBRANCH  41  43
ENDBRANCH   1  41
TORSDOF 15
ENDMDL
