MODEL 1
REMARK minimizedAffinity -5.843009
REMARK minimizedRMSD -1
REMARK WARNING: 32 MAX_TORS EXCEEDED!!!
REMARK  33 active torsions:
REMARK  status: ('A' for Active; 'I' for Inactive)
REMARK    1  A    between atoms: C2_2  and  C3_3 
REMARK    2  A    between atoms: C3_3  and  C5_5 
REMARK    3  A    between atoms: C5_5  and  C6_6 
REMARK    4  A    between atoms: C6_6  and  C8_8 
REMARK    5  A    between atoms: C8_8  and  C9_9 
REMARK    6  A    between atoms: C9_9  and  C10_10 
REMARK    7  A    between atoms: C10_10  and  C11_11 
REMARK    8  A    between atoms: C11_11  and  C12_12 
REMARK    9  A    between atoms: C12_12  and  C13_13 
REMARK   10  A    between atoms: C13_13  and  C14_14 
REMARK   11  A    between atoms: C14_14  and  C15_15 
REMARK   12  A    between atoms: C15_15  and  C16_16 
REMARK       I    between atoms: C16_16  and  N1_18 
REMARK   13  A    between atoms: N1_18  and  C17_19 
REMARK   14  A    between atoms: C19_21  and  O15_77 
REMARK   15  A    between atoms: C20_22  and  N9_73 
REMARK   16  A    between atoms: C23_27  and  O14_72 
REMARK   17  A    between atoms: C27_33  and  C48_67 
REMARK   18  A    between atoms: C29_37  and  C40_56 
REMARK   19  A    between atoms: C33_43  and  O9_55 
REMARK   20  A    between atoms: C36_48  and  C38_52 
REMARK   21  A    between atoms: C38_52  and  O8_54 
REMARK   22  A    between atoms: C40_56  and  C41_57 
REMARK   23  A    between atoms: C40_56  and  O12_66 
REMARK   24  A    between atoms: C41_57  and  C42_58 
REMARK   25  A    between atoms: C41_57  and  O11_65 
REMARK   26  A    between atoms: C45_61  and  O10_64 
REMARK   27  A    between atoms: C48_67  and  C49_68 
REMARK   28  A    between atoms: C48_67  and  O13_71 
REMARK   29  A    between atoms: C49_68  and  C50_69 
REMARK   30  A    between atoms: C50_69  and  N8_70 
REMARK   31  A    between atoms: N9_73  and  C51_74 
REMARK   32  A    between atoms: C51_74  and  C52_75 
REMARK   33  A    between atoms: C52_75  and  N10_76 
ROOT
HETATM    1  C17 UNL     1      97.428 130.735  75.211  1.00  0.00     0.179 C 
HETATM    2  C18 UNL     1      98.760 131.035  75.937  1.00  0.00     0.070 C 
HETATM    3  C19 UNL     1     100.039 130.878  75.068  1.00  0.00     0.173 C 
HETATM    4  C20 UNL     1     100.423 132.198  74.317  1.00  0.00     0.350 C 
HETATM    5  N2  UNL     1     100.870 131.900  72.955  1.00  0.00    -0.327 N 
HETATM    6  C21 UNL     1     100.554 132.737  71.832  1.00  0.00     0.244 C 
HETATM    7  O2  UNL     1      99.539 133.482  71.862  1.00  0.00    -0.271 OA
HETATM    8  C22 UNL     1     101.424 132.721  70.602  1.00  0.00     0.208 C 
HETATM    9  C23 UNL     1     101.276 131.406  69.819  1.00  0.00     0.151 C 
HETATM   10  C24 UNL     1     102.529 130.586  70.145  1.00  0.00     0.054 C 
HETATM   11  C25 UNL     1     103.554 131.565  70.707  1.00  0.00     0.129 C 
HETATM   12  N3  UNL     1     102.827 132.792  70.979  1.00  0.00    -0.334 N 
HETATM   13  C26 UNL     1     103.443 133.912  71.639  1.00  0.00     0.246 C 
HETATM   14  O3  UNL     1     104.155 133.706  72.658  1.00  0.00    -0.271 OA
HETATM   15  C27 UNL     1     103.338 135.320  71.091  1.00  0.00     0.205 C 
HETATM   16  N4  UNL     1     101.963 135.833  71.231  1.00  0.00    -0.344 N 
HETATM   17  C28 UNL     1     101.100 136.347  70.192  1.00  0.00     0.243 C 
HETATM   18  O4  UNL     1     101.229 135.957  69.001  1.00  0.00    -0.271 OA
HETATM   19  C29 UNL     1     100.023 137.369  70.496  1.00  0.00     0.208 C 
HETATM   20  N5  UNL     1      99.127 136.904  71.563  1.00  0.00    -0.344 N 
HETATM   21  C30 UNL     1      97.825 137.481  71.760  1.00  0.00     0.241 C 
HETATM   22  O5  UNL     1      97.306 138.189  70.855  1.00  0.00    -0.271 OA
HETATM   23  C31 UNL     1      97.083 137.303  73.062  1.00  0.00     0.181 C 
HETATM   24  C32 UNL     1      97.740 138.104  74.186  1.00  0.00     0.068 C 
HETATM   25  C33 UNL     1      98.504 137.088  75.042  1.00  0.00     0.138 C 
HETATM   26  C34 UNL     1      97.883 135.731  74.720  1.00  0.00     0.158 C 
HETATM   27  N6  UNL     1      97.102 135.915  73.508  1.00  0.00    -0.334 N 
HETATM   28  C35 UNL     1      96.395 134.870  72.807  1.00  0.00     0.246 C 
HETATM   29  O6  UNL     1      96.274 134.956  71.555  1.00  0.00    -0.271 OA
HETATM   30  C36 UNL     1      95.682 133.724  73.501  1.00  0.00     0.205 C 
HETATM   31  N7  UNL     1      96.545 133.005  74.446  1.00  0.00    -0.344 N 
HETATM   32  C37 UNL     1      97.129 131.734  74.124  1.00  0.00     0.241 C 
HETATM   33  O7  UNL     1      97.392 131.445  72.925  1.00  0.00    -0.271 OA
HETATM   34  H38 UNL     1     101.643 131.203  72.848  1.00  0.00     0.164 HD
HETATM   35  H46 UNL     1     101.646 135.955  72.217  1.00  0.00     0.163 HD
HETATM   36  H48 UNL     1      99.444 136.170  72.232  1.00  0.00     0.163 HD
HETATM   37  H56 UNL     1      96.587 133.310  75.442  1.00  0.00     0.163 HD
ENDROOT
BRANCH   1  38
HETATM   38  N1  UNL     1      96.324 130.729  76.177  1.00  0.00    -0.348 N 
HETATM   39  C16 UNL     1      95.060 130.111  75.894  1.00  0.00     0.218 C 
HETATM   40  O1  UNL     1      94.907 129.429  74.844  1.00  0.00    -0.274 OA
HETATM   41  H32 UNL     1      96.413 131.300  77.049  1.00  0.00     0.163 HD
BRANCH  39  42
HETATM   42  C15 UNL     1      93.906 130.281  76.838  1.00  0.00     0.103 C 
BRANCH  42  43
HETATM   43  C14 UNL     1      93.358 128.936  77.343  1.00  0.00     0.009 C 
BRANCH  43  44
HETATM   44  C13 UNL     1      91.826 128.793  77.240  1.00  0.00     0.000 C 
BRANCH  44  45
HETATM   45  C12 UNL     1      91.022 130.007  77.740  1.00  0.00     0.000 C 
BRANCH  45  46
HETATM   46  C11 UNL     1      89.501 129.779  77.681  1.00  0.00     0.000 C 
BRANCH  46  47
HETATM   47  C10 UNL     1      89.116 128.409  77.092  1.00  0.00     0.000 C 
BRANCH  47  48
HETATM   48  C9  UNL     1      88.105 128.451  75.928  1.00  0.00     0.000 C 
BRANCH  48  49
HETATM   49  C8  UNL     1      87.767 129.882  75.472  1.00  0.00     0.004 C 
BRANCH  49  50
HETATM   50  C6  UNL     1      88.266 130.178  74.039  1.00  0.00    -0.018 C 
HETATM   51  C7  UNL     1      87.171 130.909  73.250  1.00  0.00     0.010 C 
BRANCH  50  52
HETATM   52  C5  UNL     1      89.586 131.012  74.037  1.00  0.00     0.008 C 
BRANCH  52  53
HETATM   53  C3  UNL     1      90.858 130.129  74.007  1.00  0.00    -0.019 C 
HETATM   54  C4  UNL     1      90.638 128.849  73.181  1.00  0.00     0.010 C 
BRANCH  53  55
HETATM   55  C2  UNL     1      92.100 130.917  73.520  1.00  0.00    -0.000 C 
HETATM   56  C1  UNL     1      92.364 130.820  72.014  1.00  0.00     0.005 C 
ENDBRANCH  53  55
ENDBRANCH  52  53
ENDBRANCH  50  52
ENDBRANCH  49  50
ENDBRANCH  48  49
ENDBRANCH  47  48
ENDBRANCH  46  47
ENDBRANCH  45  46
ENDBRANCH  44  45
ENDBRANCH  43  44
ENDBRANCH  42  43
ENDBRANCH  39  42
ENDBRANCH   1  38
BRANCH   3  57
HETATM   57  O15 UNL     1      99.885 129.812  74.159  1.00  0.00    -0.392 OA
HETATM   58  H88 UNL     1      99.942 128.971  74.685  1.00  0.00     0.210 HD
ENDBRANCH   3  57
BRANCH   4  59
HETATM   59  N9  UNL     1     101.509 132.934  74.991  1.00  0.00     0.110 N 
HETATM   60  H81 UNL     1     102.420 132.728  74.516  1.00  0.00     0.318 HD
BRANCH  59  61
HETATM   61  C51 UNL     1     101.631 132.619  76.420  1.00  0.00     0.302 C 
BRANCH  61  62
HETATM   62  C52 UNL     1     102.973 133.121  76.956  1.00  0.00     0.296 C 
BRANCH  62  63
HETATM   63  N10 UNL     1     103.181 132.661  78.326  1.00  0.00     0.080 N 
HETATM   64  H86 UNL     1     102.520 133.179  78.952  1.00  0.00     0.312 HD
HETATM   65  H87 UNL     1     104.144 132.954  78.613  1.00  0.00     0.312 HD
ENDBRANCH  62  63
ENDBRANCH  61  62
ENDBRANCH  59  61
ENDBRANCH   4  59
BRANCH  30  66
HETATM   66  C38 UNL     1      94.328 134.127  74.148  1.00  0.00     0.146 C 
HETATM   67  C39 UNL     1      94.364 134.330  75.672  1.00  0.00     0.042 C 
BRANCH  66  68
HETATM   68  O8  UNL     1      93.807 135.274  73.519  1.00  0.00    -0.393 OA
HETATM   69  H61 UNL     1      94.371 136.046  73.784  1.00  0.00     0.210 HD
ENDBRANCH  66  68
ENDBRANCH  30  66
BRANCH   9  70
HETATM   70  O14 UNL     1     101.245 131.672  68.439  1.00  0.00    -0.393 OA
HETATM   71  H80 UNL     1     100.317 131.960  68.229  1.00  0.00     0.210 HD
ENDBRANCH   9  70
BRANCH  25  72
HETATM   72  O9  UNL     1      99.864 137.085  74.697  1.00  0.00    -0.394 OA
HETATM   73  H62 UNL     1     100.275 137.862  75.157  1.00  0.00     0.210 HD
ENDBRANCH  25  72
BRANCH  15  74
HETATM   74  C48 UNL     1     103.969 135.449  69.675  1.00  0.00     0.151 C 
BRANCH  74  75
HETATM   75  C49 UNL     1     104.592 136.852  69.482  1.00  0.00     0.064 C 
BRANCH  75  76
HETATM   76  C50 UNL     1     105.427 137.313  70.684  1.00  0.00     0.269 C 
BRANCH  76  77
HETATM   77  N8  UNL     1     106.699 136.598  70.748  1.00  0.00     0.078 N 
HETATM   78  H77 UNL     1     107.219 136.949  71.585  1.00  0.00     0.312 HD
HETATM   79  H78 UNL     1     107.267 136.865  69.909  1.00  0.00     0.312 HD
ENDBRANCH  76  77
ENDBRANCH  75  76
ENDBRANCH  74  75
BRANCH  74  80
HETATM   80  O13 UNL     1     104.959 134.468  69.481  1.00  0.00    -0.393 OA
HETATM   81  H79 UNL     1     104.974 134.252  68.512  1.00  0.00     0.210 HD
ENDBRANCH  74  80
ENDBRANCH  15  74
BRANCH  19  82
HETATM   82  C40 UNL     1     100.610 138.763  70.851  1.00  0.00     0.183 C 
BRANCH  82  83
HETATM   83  C41 UNL     1     100.301 139.829  69.765  1.00  0.00     0.182 C 
BRANCH  83  84
HETATM   84  C42 UNL     1     100.790 139.384  68.398  1.00  0.00    -0.027 A 
HETATM   85  C43 UNL     1      99.901 138.942  67.398  1.00  0.00     0.012 A 
HETATM   86  C44 UNL     1     100.381 138.539  66.148  1.00  0.00     0.037 A 
HETATM   87  C45 UNL     1     101.754 138.546  65.886  1.00  0.00     0.065 A 
HETATM   88  C46 UNL     1     102.649 138.957  66.882  1.00  0.00     0.037 A 
HETATM   89  C47 UNL     1     102.171 139.372  68.128  1.00  0.00     0.012 A 
BRANCH  87  90
HETATM   90  O10 UNL     1     102.217 138.144  64.635  1.00  0.00    -0.361 OA
HETATM   91  H69 UNL     1     103.205 138.149  64.411  1.00  0.00     0.217 HD
ENDBRANCH  87  90
ENDBRANCH  83  84
BRANCH  83  92
HETATM   92  O11 UNL     1      98.942 140.193  69.725  1.00  0.00    -0.388 OA
HETATM   93  H70 UNL     1      98.395 139.369  69.693  1.00  0.00     0.210 HD
ENDBRANCH  83  92
ENDBRANCH  82  83
BRANCH  82  94
HETATM   94  O12 UNL     1     101.995 138.684  71.083  1.00  0.00    -0.390 OA
HETATM   95  H71 UNL     1     102.115 138.331  72.002  1.00  0.00     0.210 HD
ENDBRANCH  82  94
ENDBRANCH  19  82
TORSDOF 33
ENDMDL
MODEL 2
REMARK minimizedAffinity -5.43384027
REMARK minimizedRMSD -1
REMARK WARNING: 32 MAX_TORS EXCEEDED!!!
REMARK  33 active torsions:
REMARK  status: ('A' for Active; 'I' for Inactive)
REMARK    1  A    between atoms: C2_2  and  C3_3 
REMARK    2  A    between atoms: C3_3  and  C5_5 
REMARK    3  A    between atoms: C5_5  and  C6_6 
REMARK    4  A    between atoms: C6_6  and  C8_8 
REMARK    5  A    between atoms: C8_8  and  C9_9 
REMARK    6  A    between atoms: C9_9  and  C10_10 
REMARK    7  A    between atoms: C10_10  and  C11_11 
REMARK    8  A    between atoms: C11_11  and  C12_12 
REMARK    9  A    between atoms: C12_12  and  C13_13 
REMARK   10  A    between atoms: C13_13  and  C14_14 
REMARK   11  A    between atoms: C14_14  and  C15_15 
REMARK   12  A    between atoms: C15_15  and  C16_16 
REMARK       I    between atoms: C16_16  and  N1_18 
REMARK   13  A    between atoms: N1_18  and  C17_19 
REMARK   14  A    between atoms: C19_21  and  O15_77 
REMARK   15  A    between atoms: C20_22  and  N9_73 
REMARK   16  A    between atoms: C23_27  and  O14_72 
REMARK   17  A    between atoms: C27_33  and  C48_67 
REMARK   18  A    between atoms: C29_37  and  C40_56 
REMARK   19  A    between atoms: C33_43  and  O9_55 
REMARK   20  A    between atoms: C36_48  and  C38_52 
REMARK   21  A    between atoms: C38_52  and  O8_54 
REMARK   22  A    between atoms: C40_56  and  C41_57 
REMARK   23  A    between atoms: C40_56  and  O12_66 
REMARK   24  A    between atoms: C41_57  and  C42_58 
REMARK   25  A    between atoms: C41_57  and  O11_65 
REMARK   26  A    between atoms: C45_61  and  O10_64 
REMARK   27  A    between atoms: C48_67  and  C49_68 
REMARK   28  A    between atoms: C48_67  and  O13_71 
REMARK   29  A    between atoms: C49_68  and  C50_69 
REMARK   30  A    between atoms: C50_69  and  N8_70 
REMARK   31  A    between atoms: N9_73  and  C51_74 
REMARK   32  A    between atoms: C51_74  and  C52_75 
REMARK   33  A    between atoms: C52_75  and  N10_76 
ROOT
HETATM    1  C17 UNL     1      98.462 139.498  65.122  1.00  0.00     0.179 C 
HETATM    2  C18 UNL     1      97.451 138.453  64.594  1.00  0.00     0.070 C 
HETATM    3  C19 UNL     1      96.450 138.978  63.527  1.00  0.00     0.173 C 
HETATM    4  C20 UNL     1      96.999 138.839  62.065  1.00  0.00     0.350 C 
HETATM    5  N2  UNL     1      96.662 140.026  61.277  1.00  0.00    -0.327 N 
HETATM    6  C21 UNL     1      97.555 140.595  60.308  1.00  0.00     0.244 C 
HETATM    7  O2  UNL     1      98.797 140.407  60.401  1.00  0.00    -0.271 OA
HETATM    8  C22 UNL     1      97.017 141.437  59.179  1.00  0.00     0.208 C 
HETATM    9  C23 UNL     1      96.499 142.794  59.680  1.00  0.00     0.151 C 
HETATM   10  C24 UNL     1      94.972 142.675  59.697  1.00  0.00     0.054 C 
HETATM   11  C25 UNL     1      94.620 141.484  58.812  1.00  0.00     0.129 C 
HETATM   12  N3  UNL     1      95.869 140.783  58.571  1.00  0.00    -0.334 N 
HETATM   13  C26 UNL     1      95.915 139.527  57.873  1.00  0.00     0.246 C 
HETATM   14  O3  UNL     1      95.075 138.633  58.165  1.00  0.00    -0.271 OA
HETATM   15  C27 UNL     1      96.880 139.279  56.732  1.00  0.00     0.205 C 
HETATM   16  N4  UNL     1      98.265 139.196  57.231  1.00  0.00    -0.344 N 
HETATM   17  C28 UNL     1      99.404 139.980  56.812  1.00  0.00     0.243 C 
HETATM   18  O4  UNL     1      99.247 141.141  56.349  1.00  0.00    -0.271 OA
HETATM   19  C29 UNL     1     100.815 139.435  56.909  1.00  0.00     0.208 C 
HETATM   20  N5  UNL     1     101.123 138.983  58.273  1.00  0.00    -0.344 N 
HETATM   21  C30 UNL     1     102.477 138.803  58.721  1.00  0.00     0.241 C 
HETATM   22  O5  UNL     1     103.430 139.302  58.062  1.00  0.00    -0.271 OA
HETATM   23  C31 UNL     1     102.791 137.976  59.943  1.00  0.00     0.181 C 
HETATM   24  C32 UNL     1     102.555 136.488  59.677  1.00  0.00     0.068 C 
HETATM   25  C33 UNL     1     101.236 136.136  60.372  1.00  0.00     0.138 C 
HETATM   26  C34 UNL     1     101.011 137.236  61.408  1.00  0.00     0.158 C 
HETATM   27  N6  UNL     1     101.921 138.315  61.062  1.00  0.00    -0.334 N 
HETATM   28  C35 UNL     1     101.997 139.588  61.739  1.00  0.00     0.246 C 
HETATM   29  O6  UNL     1     102.323 140.608  61.075  1.00  0.00    -0.271 OA
HETATM   30  C36 UNL     1     101.822 139.756  63.238  1.00  0.00     0.205 C 
HETATM   31  N7  UNL     1     100.579 139.154  63.737  1.00  0.00    -0.344 N 
HETATM   32  C37 UNL     1      99.428 139.950  64.058  1.00  0.00     0.241 C 
HETATM   33  O7  UNL     1      99.222 141.037  63.453  1.00  0.00    -0.271 OA
HETATM   34  H38 UNL     1      95.655 140.306  61.244  1.00  0.00     0.164 HD
HETATM   35  H46 UNL     1      98.451 138.384  57.858  1.00  0.00     0.163 HD
HETATM   36  H48 UNL     1     100.353 138.736  58.931  1.00  0.00     0.163 HD
HETATM   37  H56 UNL     1     100.577 138.163  64.056  1.00  0.00     0.163 HD
ENDROOT
BRANCH   1  38
HETATM   38  N1  UNL     1      99.214 138.937  66.249  1.00  0.00    -0.348 N 
HETATM   39  C16 UNL     1      99.798 139.763  67.267  1.00  0.00     0.218 C 
HETATM   40  O1  UNL     1      99.564 141.002  67.292  1.00  0.00    -0.274 OA
HETATM   41  H32 UNL     1      99.440 137.916  66.248  1.00  0.00     0.163 HD
BRANCH  39  42
HETATM   42  C15 UNL     1     100.704 139.162  68.302  1.00  0.00     0.103 C 
BRANCH  42  43
HETATM   43  C14 UNL     1     100.101 137.906  68.951  1.00  0.00     0.009 C 
BRANCH  43  44
HETATM   44  C13 UNL     1     101.053 136.693  68.995  1.00  0.00     0.000 C 
BRANCH  44  45
HETATM   45  C12 UNL     1     101.690 136.314  67.646  1.00  0.00     0.000 C 
BRANCH  45  46
HETATM   46  C11 UNL     1     101.799 134.792  67.445  1.00  0.00     0.000 C 
BRANCH  46  47
HETATM   47  C10 UNL     1     101.134 133.983  68.574  1.00  0.00     0.000 C 
BRANCH  47  48
HETATM   48  C9  UNL     1     101.852 132.675  68.962  1.00  0.00     0.000 C 
BRANCH  48  49
HETATM   49  C8  UNL     1     102.098 132.547  70.477  1.00  0.00     0.004 C 
BRANCH  49  50
HETATM   50  C6  UNL     1     101.083 131.604  71.163  1.00  0.00    -0.018 C 
HETATM   51  C7  UNL     1     101.578 131.248  72.572  1.00  0.00     0.010 C 
BRANCH  50  52
HETATM   52  C5  UNL     1      99.654 132.227  71.229  1.00  0.00     0.008 C 
BRANCH  52  53
HETATM   53  C3  UNL     1      99.488 133.237  72.393  1.00  0.00    -0.019 C 
HETATM   54  C4  UNL     1      99.549 134.690  71.892  1.00  0.00     0.010 C 
BRANCH  53  55
HETATM   55  C2  UNL     1      98.203 132.969  73.215  1.00  0.00    -0.000 C 
HETATM   56  C1  UNL     1      98.283 131.754  74.144  1.00  0.00     0.005 C 
ENDBRANCH  53  55
ENDBRANCH  52  53
ENDBRANCH  50  52
ENDBRANCH  49  50
ENDBRANCH  48  49
ENDBRANCH  47  48
ENDBRANCH  46  47
ENDBRANCH  45  46
ENDBRANCH  44  45
ENDBRANCH  43  44
ENDBRANCH  42  43
ENDBRANCH  39  42
ENDBRANCH   1  38
BRANCH   3  57
HETATM   57  O15 UNL     1      96.097 140.314  63.803  1.00  0.00    -0.392 OA
HETATM   58  H88 UNL     1      95.496 140.298  64.595  1.00  0.00     0.210 HD
ENDBRANCH   3  57
BRANCH   4  59
HETATM   59  N9  UNL     1      96.444 137.666  61.364  1.00  0.00     0.110 N 
HETATM   60  H81 UNL     1      96.255 136.902  62.056  1.00  0.00     0.318 HD
BRANCH  59  61
HETATM   61  C51 UNL     1      97.318 137.149  60.305  1.00  0.00     0.302 C 
BRANCH  61  62
HETATM   62  C52 UNL     1      96.624 136.005  59.562  1.00  0.00     0.296 C 
BRANCH  62  63
HETATM   63  N10 UNL     1      96.743 134.759  60.314  1.00  0.00     0.080 N 
HETATM   64  H86 UNL     1      97.739 134.440  60.267  1.00  0.00     0.312 HD
HETATM   65  H87 UNL     1      96.180 134.035  59.811  1.00  0.00     0.312 HD
ENDBRANCH  62  63
ENDBRANCH  61  62
ENDBRANCH  59  61
ENDBRANCH   4  59
BRANCH  30  66
HETATM   66  C38 UNL     1     103.055 139.304  64.068  1.00  0.00     0.146 C 
HETATM   67  C39 UNL     1     103.751 140.415  64.869  1.00  0.00     0.042 C 
BRANCH  66  68
HETATM   68  O8  UNL     1     102.707 138.238  64.920  1.00  0.00    -0.393 OA
HETATM   69  H61 UNL     1     102.129 138.603  65.640  1.00  0.00     0.210 HD
ENDBRANCH  66  68
ENDBRANCH  30  66
BRANCH   9  70
HETATM   70  O14 UNL     1      96.873 143.809  58.782  1.00  0.00    -0.393 OA
HETATM   71  H80 UNL     1      97.818 144.036  58.991  1.00  0.00     0.210 HD
ENDBRANCH   9  70
BRANCH  25  72
HETATM   72  O9  UNL     1     100.183 136.129  59.445  1.00  0.00    -0.394 OA
HETATM   73  H62 UNL     1     100.227 135.259  58.971  1.00  0.00     0.210 HD
ENDBRANCH  25  72
BRANCH  15  74
HETATM   74  C48 UNL     1      96.644 140.251  55.541  1.00  0.00     0.151 C 
BRANCH  74  75
HETATM   75  C49 UNL     1      96.868 139.525  54.193  1.00  0.00     0.064 C 
BRANCH  75  76
HETATM   76  C50 UNL     1      96.063 138.225  54.066  1.00  0.00     0.269 C 
BRANCH  76  77
HETATM   77  N8  UNL     1      94.637 138.500  53.914  1.00  0.00     0.078 N 
HETATM   78  H77 UNL     1      94.142 137.582  53.839  1.00  0.00     0.312 HD
HETATM   79  H78 UNL     1      94.494 138.993  53.002  1.00  0.00     0.312 HD
ENDBRANCH  76  77
ENDBRANCH  75  76
ENDBRANCH  74  75
BRANCH  74  80
HETATM   80  O13 UNL     1      95.340 140.776  55.578  1.00  0.00    -0.393 OA
HETATM   81  H79 UNL     1      95.375 141.682  55.174  1.00  0.00     0.210 HD
ENDBRANCH  74  80
ENDBRANCH  15  74
BRANCH  19  82
HETATM   82  C40 UNL     1     101.084 138.296  55.887  1.00  0.00     0.183 C 
BRANCH  82  83
HETATM   83  C41 UNL     1     100.623 136.910  56.411  1.00  0.00     0.182 C 
BRANCH  83  84
HETATM   84  C42 UNL     1      99.681 136.233  55.430  1.00  0.00    -0.027 A 
HETATM   85  C43 UNL     1      99.937 136.218  54.045  1.00  0.00     0.012 A 
HETATM   86  C44 UNL     1      99.052 135.586  53.166  1.00  0.00     0.037 A 
HETATM   87  C45 UNL     1      97.887 134.985  53.652  1.00  0.00     0.065 A 
HETATM   88  C46 UNL     1      97.608 135.019  55.025  1.00  0.00     0.037 A 
HETATM   89  C47 UNL     1      98.498 135.638  55.907  1.00  0.00     0.012 A 
BRANCH  87  90
HETATM   90  O10 UNL     1      97.015 134.358  52.764  1.00  0.00    -0.361 OA
HETATM   91  H69 UNL     1      96.170 133.903  53.087  1.00  0.00     0.217 HD
ENDBRANCH  87  90
ENDBRANCH  83  84
BRANCH  83  92
HETATM   92  O11 UNL     1     101.697 136.066  56.750  1.00  0.00    -0.388 OA
HETATM   93  H70 UNL     1     102.338 136.053  55.996  1.00  0.00     0.210 HD
ENDBRANCH  83  92
ENDBRANCH  82  83
BRANCH  82  94
HETATM   94  O12 UNL     1     102.440 138.259  55.518  1.00  0.00    -0.390 OA
HETATM   95  H71 UNL     1     102.579 138.977  54.848  1.00  0.00     0.210 HD
ENDBRANCH  82  94
ENDBRANCH  19  82
TORSDOF 33
ENDMDL
MODEL 3
REMARK minimizedAffinity -5.30343008
REMARK minimizedRMSD -1
REMARK WARNING: 32 MAX_TORS EXCEEDED!!!
REMARK  33 active torsions:
REMARK  status: ('A' for Active; 'I' for Inactive)
REMARK    1  A    between atoms: C2_2  and  C3_3 
REMARK    2  A    between atoms: C3_3  and  C5_5 
REMARK    3  A    between atoms: C5_5  and  C6_6 
REMARK    4  A    between atoms: C6_6  and  C8_8 
REMARK    5  A    between atoms: C8_8  and  C9_9 
REMARK    6  A    between atoms: C9_9  and  C10_10 
REMARK    7  A    between atoms: C10_10  and  C11_11 
REMARK    8  A    between atoms: C11_11  and  C12_12 
REMARK    9  A    between atoms: C12_12  and  C13_13 
REMARK   10  A    between atoms: C13_13  and  C14_14 
REMARK   11  A    between atoms: C14_14  and  C15_15 
REMARK   12  A    between atoms: C15_15  and  C16_16 
REMARK       I    between atoms: C16_16  and  N1_18 
REMARK   13  A    between atoms: N1_18  and  C17_19 
REMARK   14  A    between atoms: C19_21  and  O15_77 
REMARK   15  A    between atoms: C20_22  and  N9_73 
REMARK   16  A    between atoms: C23_27  and  O14_72 
REMARK   17  A    between atoms: C27_33  and  C48_67 
REMARK   18  A    between atoms: C29_37  and  C40_56 
REMARK   19  A    between atoms: C33_43  and  O9_55 
REMARK   20  A    between atoms: C36_48  and  C38_52 
REMARK   21  A    between atoms: C38_52  and  O8_54 
REMARK   22  A    between atoms: C40_56  and  C41_57 
REMARK   23  A    between atoms: C40_56  and  O12_66 
REMARK   24  A    between atoms: C41_57  and  C42_58 
REMARK   25  A    between atoms: C41_57  and  O11_65 
REMARK   26  A    between atoms: C45_61  and  O10_64 
REMARK   27  A    between atoms: C48_67  and  C49_68 
REMARK   28  A    between atoms: C48_67  and  O13_71 
REMARK   29  A    between atoms: C49_68  and  C50_69 
REMARK   30  A    between atoms: C50_69  and  N8_70 
REMARK   31  A    between atoms: N9_73  and  C51_74 
REMARK   32  A    between atoms: C51_74  and  C52_75 
REMARK   33  A    between atoms: C52_75  and  N10_76 
ROOT
HETATM    1  C17 UNL     1      97.573 140.666  64.115  1.00  0.00     0.179 C 
HETATM    2  C18 UNL     1      96.503 139.717  63.524  1.00  0.00     0.070 C 
HETATM    3  C19 UNL     1      95.845 140.201  62.201  1.00  0.00     0.173 C 
HETATM    4  C20 UNL     1      96.628 139.728  60.930  1.00  0.00     0.350 C 
HETATM    5  N2  UNL     1      96.681 140.799  59.933  1.00  0.00    -0.327 N 
HETATM    6  C21 UNL     1      97.835 141.044  59.116  1.00  0.00     0.244 C 
HETATM    7  O2  UNL     1      98.977 140.681  59.505  1.00  0.00    -0.271 OA
HETATM    8  C22 UNL     1      97.696 141.752  57.793  1.00  0.00     0.208 C 
HETATM    9  C23 UNL     1      97.359 143.240  57.978  1.00  0.00     0.151 C 
HETATM   10  C24 UNL     1      95.862 143.367  57.674  1.00  0.00     0.054 C 
HETATM   11  C25 UNL     1      95.467 142.112  56.904  1.00  0.00     0.129 C 
HETATM   12  N3  UNL     1      96.583 141.192  57.041  1.00  0.00    -0.334 N 
HETATM   13  C26 UNL     1      96.523 139.843  56.548  1.00  0.00     0.246 C 
HETATM   14  O3  UNL     1      95.489 139.156  56.767  1.00  0.00    -0.271 OA
HETATM   15  C27 UNL     1      97.625 139.253  55.692  1.00  0.00     0.205 C 
HETATM   16  N4  UNL     1      98.847 139.041  56.490  1.00  0.00    -0.344 N 
HETATM   17  C28 UNL     1     100.173 139.552  56.230  1.00  0.00     0.243 C 
HETATM   18  O4  UNL     1     100.332 140.625  55.590  1.00  0.00    -0.271 OA
HETATM   19  C29 UNL     1     101.409 138.816  56.709  1.00  0.00     0.208 C 
HETATM   20  N5  UNL     1     101.356 138.564  58.155  1.00  0.00    -0.344 N 
HETATM   21  C30 UNL     1     102.540 138.253  58.910  1.00  0.00     0.241 C 
HETATM   22  O5  UNL     1     103.679 138.475  58.416  1.00  0.00    -0.271 OA
HETATM   23  C31 UNL     1     102.449 137.610  60.272  1.00  0.00     0.181 C 
HETATM   24  C32 UNL     1     101.990 136.155  60.165  1.00  0.00     0.068 C 
HETATM   25  C33 UNL     1     100.520 136.140  60.595  1.00  0.00     0.138 C 
HETATM   26  C34 UNL     1     100.312 137.423  61.396  1.00  0.00     0.158 C 
HETATM   27  N6  UNL     1     101.460 138.271  61.115  1.00  0.00    -0.334 N 
HETATM   28  C35 UNL     1     101.644 139.613  61.614  1.00  0.00     0.246 C 
HETATM   29  O6  UNL     1     102.280 140.439  60.905  1.00  0.00    -0.271 OA
HETATM   30  C36 UNL     1     101.220 140.063  63.000  1.00  0.00     0.205 C 
HETATM   31  N7  UNL     1      99.812 139.759  63.290  1.00  0.00    -0.344 N 
HETATM   32  C37 UNL     1      98.793 140.769  63.238  1.00  0.00     0.241 C 
HETATM   33  O7  UNL     1      98.918 141.754  62.461  1.00  0.00    -0.271 OA
HETATM   34  H38 UNL     1      95.771 141.224  59.641  1.00  0.00     0.164 HD
HETATM   35  H46 UNL     1      98.750 138.330  57.247  1.00  0.00     0.163 HD
HETATM   36  H48 UNL     1     100.441 138.559  58.654  1.00  0.00     0.163 HD
HETATM   37  H56 UNL     1      99.560 138.850  63.732  1.00  0.00     0.163 HD
ENDROOT
BRANCH   1  38
HETATM   38  N1  UNL     1      97.972 140.197  65.446  1.00  0.00    -0.348 N 
HETATM   39  C16 UNL     1      98.327 141.101  66.502  1.00  0.00     0.218 C 
HETATM   40  O1  UNL     1      98.173 142.344  66.353  1.00  0.00    -0.274 OA
HETATM   41  H32 UNL     1      98.127 139.173  65.595  1.00  0.00     0.163 HD
BRANCH  39  42
HETATM   42  C15 UNL     1      98.897 140.577  67.788  1.00  0.00     0.103 C 
BRANCH  42  43
HETATM   43  C14 UNL     1      98.604 139.082  67.993  1.00  0.00     0.009 C 
BRANCH  43  44
HETATM   44  C13 UNL     1      99.854 138.220  68.263  1.00  0.00     0.000 C 
BRANCH  44  45
HETATM   45  C12 UNL     1     100.313 138.178  69.732  1.00  0.00     0.000 C 
BRANCH  45  46
HETATM   46  C11 UNL     1     101.719 138.769  69.934  1.00  0.00     0.000 C 
BRANCH  46  47
HETATM   47  C10 UNL     1     102.409 139.155  68.612  1.00  0.00     0.000 C 
BRANCH  47  48
HETATM   48  C9  UNL     1     103.925 138.880  68.552  1.00  0.00     0.000 C 
BRANCH  48  49
HETATM   49  C8  UNL     1     104.318 137.521  69.160  1.00  0.00     0.004 C 
BRANCH  49  50
HETATM   50  C6  UNL     1     103.997 136.338  68.217  1.00  0.00    -0.018 C 
HETATM   51  C7  UNL     1     105.297 135.792  67.612  1.00  0.00     0.010 C 
BRANCH  50  52
HETATM   52  C5  UNL     1     103.216 135.201  68.946  1.00  0.00     0.008 C 
BRANCH  52  53
HETATM   53  C3  UNL     1     101.814 134.943  68.338  1.00  0.00    -0.019 C 
HETATM   54  C4  UNL     1     101.769 135.319  66.846  1.00  0.00     0.010 C 
BRANCH  53  55
HETATM   55  C2  UNL     1     101.337 133.489  68.575  1.00  0.00    -0.000 C 
HETATM   56  C1  UNL     1     102.124 132.728  69.646  1.00  0.00     0.005 C 
ENDBRANCH  53  55
ENDBRANCH  52  53
ENDBRANCH  50  52
ENDBRANCH  49  50
ENDBRANCH  48  49
ENDBRANCH  47  48
ENDBRANCH  46  47
ENDBRANCH  45  46
ENDBRANCH  44  45
ENDBRANCH  43  44
ENDBRANCH  42  43
ENDBRANCH  39  42
ENDBRANCH   1  38
BRANCH   3  57
HETATM   57  O15 UNL     1      95.705 141.604  62.209  1.00  0.00    -0.392 OA
HETATM   58  H88 UNL     1      94.971 141.819  62.844  1.00  0.00     0.210 HD
ENDBRANCH   3  57
BRANCH   4  59
HETATM   59  N9  UNL     1      96.006 138.553  60.290  1.00  0.00     0.110 N 
HETATM   60  H81 UNL     1      94.970 138.579  60.442  1.00  0.00     0.318 HD
BRANCH  59  61
HETATM   61  C51 UNL     1      96.530 137.273  60.780  1.00  0.00     0.302 C 
BRANCH  61  62
HETATM   62  C52 UNL     1      96.502 136.230  59.661  1.00  0.00     0.296 C 
BRANCH  62  63
HETATM   63  N10 UNL     1      96.877 134.916  60.175  1.00  0.00     0.080 N 
HETATM   64  H86 UNL     1      97.900 134.929  60.398  1.00  0.00     0.312 HD
HETATM   65  H87 UNL     1      96.756 134.228  59.396  1.00  0.00     0.312 HD
ENDBRANCH  62  63
ENDBRANCH  61  62
ENDBRANCH  59  61
ENDBRANCH   4  59
BRANCH  30  66
HETATM   66  C38 UNL     1     102.160 139.572  64.135  1.00  0.00     0.146 C 
HETATM   67  C39 UNL     1     101.593 138.450  65.019  1.00  0.00     0.042 C 
BRANCH  66  68
HETATM   68  O8  UNL     1     103.407 139.188  63.606  1.00  0.00    -0.393 OA
HETATM   69  H61 UNL     1     103.274 138.342  63.103  1.00  0.00     0.210 HD
ENDBRANCH  66  68
ENDBRANCH  30  66
BRANCH   9  70
HETATM   70  O14 UNL     1      98.084 144.013  57.055  1.00  0.00    -0.393 OA
HETATM   71  H80 UNL     1      98.997 144.121  57.434  1.00  0.00     0.210 HD
ENDBRANCH   9  70
BRANCH  25  72
HETATM   72  O9  UNL     1      99.683 136.140  59.468  1.00  0.00    -0.394 OA
HETATM   73  H62 UNL     1      99.652 135.204  59.138  1.00  0.00     0.210 HD
ENDBRANCH  25  72
BRANCH  15  74
HETATM   74  C48 UNL     1      97.813 140.030  54.357  1.00  0.00     0.151 C 
BRANCH  74  75
HETATM   75  C49 UNL     1      98.314 139.083  53.242  1.00  0.00     0.064 C 
BRANCH  75  76
HETATM   76  C50 UNL     1      97.244 138.770  52.188  1.00  0.00     0.269 C 
BRANCH  76  77
HETATM   77  N8  UNL     1      96.245 137.841  52.710  1.00  0.00     0.078 N 
HETATM   78  H77 UNL     1      95.550 137.662  51.950  1.00  0.00     0.312 HD
HETATM   79  H78 UNL     1      95.727 138.319  53.484  1.00  0.00     0.312 HD
ENDBRANCH  76  77
ENDBRANCH  75  76
ENDBRANCH  74  75
BRANCH  74  80
HETATM   80  O13 UNL     1      96.604 140.626  53.956  1.00  0.00    -0.393 OA
HETATM   81  H79 UNL     1      96.834 141.451  53.453  1.00  0.00     0.210 HD
ENDBRANCH  74  80
ENDBRANCH  15  74
BRANCH  19  82
HETATM   82  C40 UNL     1     101.648 137.491  55.935  1.00  0.00     0.183 C 
BRANCH  82  83
HETATM   83  C41 UNL     1     100.808 136.315  56.502  1.00  0.00     0.182 C 
BRANCH  83  84
HETATM   84  C42 UNL     1      99.816 135.798  55.474  1.00  0.00    -0.027 A 
HETATM   85  C43 UNL     1     100.149 135.693  54.109  1.00  0.00     0.012 A 
HETATM   86  C44 UNL     1      99.216 135.212  53.186  1.00  0.00     0.037 A 
HETATM   87  C45 UNL     1      97.931 134.855  53.604  1.00  0.00     0.065 A 
HETATM   88  C46 UNL     1      97.580 134.982  54.955  1.00  0.00     0.037 A 
HETATM   89  C47 UNL     1      98.516 135.450  55.882  1.00  0.00     0.012 A 
BRANCH  87  90
HETATM   90  O10 UNL     1      97.012 134.376  52.673  1.00  0.00    -0.361 OA
HETATM   91  H69 UNL     1      96.078 134.097  52.948  1.00  0.00     0.217 HD
ENDBRANCH  87  90
ENDBRANCH  83  84
BRANCH  83  92
HETATM   92  O11 UNL     1     101.600 135.271  57.015  1.00  0.00    -0.388 OA
HETATM   93  H70 UNL     1     102.282 135.030  56.339  1.00  0.00     0.210 HD
ENDBRANCH  83  92
ENDBRANCH  82  83
BRANCH  82  94
HETATM   94  O12 UNL     1     103.014 137.157  55.915  1.00  0.00    -0.390 OA
HETATM   95  H71 UNL     1     103.439 137.715  55.214  1.00  0.00     0.210 HD
ENDBRANCH  82  94
ENDBRANCH  19  82
TORSDOF 33
ENDMDL
