MODEL 1
REMARK VINA RESULT:     0.000      0.000      0.000
REMARK INTER + INTRA:          -0.797
REMARK INTER:                   0.000
REMARK INTRA:                  -0.797
REMARK UNBOUND:                -0.797
REMARK  Name = 
REMARK  11 active torsions:
REMARK  status: ('A' for Active; 'I' for Inactive)
REMARK    1  A    between atoms: C_1  and  O_2
REMARK    2  A    between atoms: O_2  and  C_3
REMARK    3  A    between atoms: C_5  and  C_21
REMARK    4  A    between atoms: C_7  and  C_10
REMARK    5  A    between atoms: C_8  and  O_9
REMARK    6  A    between atoms: C_11  and  C_12
REMARK    7  A    between atoms: C_14  and  O_19
REMARK    8  A    between atoms: C_15  and  O_18
REMARK    9  A    between atoms: O_19  and  C_20
REMARK   10  A    between atoms: C_22  and  C_23
REMARK   11  A    between atoms: C_23  and  O_25
REMARK                            x       y       z     vdW  Elec       q    Type
REMARK                         _______ _______ _______ _____ _____    ______ ____
ROOT
ATOM      1  C   UNL     1       4.085   3.732   1.639  0.00  0.00    +0.162 A 
ATOM      2  C   UNL     1       3.753   4.891   2.345  0.00  0.00    +0.057 A 
ATOM      3  C   UNL     1       4.127   6.159   1.873  0.00  0.00    -0.021 A 
ATOM      4  C   UNL     1       4.802   6.258   0.646  0.00  0.00    +0.019 A 
ATOM      5  C   UNL     1       5.133   5.110  -0.089  0.00  0.00    +0.021 A 
ATOM      6  C   UNL     1       4.781   3.849   0.424  0.00  0.00    +0.166 A 
ENDROOT
BRANCH   1   8
ATOM      7  C   UNL     1       2.388   2.119   2.119  0.00  0.00    +0.277 C 
ATOM      8  O   UNL     1       3.765   2.459   2.039  0.00  0.00    -0.491 OA
ENDBRANCH   1   8
BRANCH   6   9
ATOM      9  O   UNL     1       5.091   2.693  -0.250  0.00  0.00    -0.503 OA
ATOM     10  H   UNL     1       4.448   2.007  -0.013  0.00  0.00    +0.292 HD
ENDBRANCH   6   9
BRANCH   5  11
ATOM     11  C   UNL     1       5.790   5.269  -1.396  0.00  0.00    +0.012 C 
ATOM     12  C   UNL     1       6.015   6.468  -1.958  0.00  0.00    +0.009 C 
BRANCH  12  13
ATOM     13  C   UNL     1       6.716   6.671  -3.240  0.00  0.00    -0.021 A 
ATOM     14  C   UNL     1       6.978   7.939  -3.780  0.00  0.00    +0.057 A 
ATOM     15  C   UNL     1       7.656   8.120  -5.004  0.00  0.00    +0.162 A 
ATOM     16  C   UNL     1       8.084   6.983  -5.693  0.00  0.00    +0.158 A 
ATOM     17  C   UNL     1       7.847   5.712  -5.157  0.00  0.00    +0.050 A 
ATOM     18  C   UNL     1       7.179   5.556  -3.940  0.00  0.00    +0.012 A 
BRANCH  16  19
ATOM     19  O   UNL     1       8.736   6.948  -6.891  0.00  0.00    -0.503 OA
ATOM     20  H   UNL     1       8.103   6.953  -7.616  0.00  0.00    +0.292 HD
ENDBRANCH  16  19
BRANCH  15  21
ATOM     21  O   UNL     1       7.768   9.445  -5.317  0.00  0.00    -0.491 OA
ATOM     22  C   UNL     1       7.246  10.454  -4.477  0.00  0.00    +0.277 C 
ENDBRANCH  15  21
ENDBRANCH  12  13
ENDBRANCH   5  11
BRANCH   3  23
ATOM     23  C   UNL     1       3.763   7.392   2.594  0.00  0.00    +0.015 C 
ATOM     24  C   UNL     1       3.996   8.633   2.135  0.00  0.00    +0.092 C 
BRANCH  24  25
ATOM     25  C   UNL     1       3.596   9.799   2.945  0.00  0.00    +0.330 C 
ATOM     26  O   UNL     1       3.773  10.959   2.621  0.00  0.00    -0.246 OA
BRANCH  25  27
ATOM     27  O   UNL     1       2.999   9.438   4.098  0.00  0.00    -0.478 OA
ATOM     28  H   UNL     1       3.512   9.600   4.910  0.00  0.00    +0.295 HD
ENDBRANCH  25  27
ENDBRANCH  24  25
ENDBRANCH   3  23
TORSDOF 9
ENDMDL
MODEL 2
REMARK VINA RESULT:     0.000     13.654     14.752
REMARK INTER + INTRA:          -0.797
REMARK INTER:                   0.000
REMARK INTRA:                  -0.797
REMARK UNBOUND:                -0.797
REMARK  Name = 
REMARK  11 active torsions:
REMARK  status: ('A' for Active; 'I' for Inactive)
REMARK    1  A    between atoms: C_1  and  O_2
REMARK    2  A    between atoms: O_2  and  C_3
REMARK    3  A    between atoms: C_5  and  C_21
REMARK    4  A    between atoms: C_7  and  C_10
REMARK    5  A    between atoms: C_8  and  O_9
REMARK    6  A    between atoms: C_11  and  C_12
REMARK    7  A    between atoms: C_14  and  O_19
REMARK    8  A    between atoms: C_15  and  O_18
REMARK    9  A    between atoms: O_19  and  C_20
REMARK   10  A    between atoms: C_22  and  C_23
REMARK   11  A    between atoms: C_23  and  O_25
REMARK                            x       y       z     vdW  Elec       q    Type
REMARK                         _______ _______ _______ _____ _____    ______ ____
ROOT
ATOM      1  C   UNL     1      -5.363   2.136   5.887  0.00  0.00    +0.162 A 
ATOM      2  C   UNL     1      -6.066   2.098   4.680  0.00  0.00    +0.057 A 
ATOM      3  C   UNL     1      -5.811   1.103   3.723  0.00  0.00    -0.021 A 
ATOM      4  C   UNL     1      -4.866   0.107   4.013  0.00  0.00    +0.019 A 
ATOM      5  C   UNL     1      -4.157   0.114   5.224  0.00  0.00    +0.021 A 
ATOM      6  C   UNL     1      -4.405   1.143   6.149  0.00  0.00    +0.166 A 
ENDROOT
BRANCH   1   8
ATOM      7  C   UNL     1      -6.816   3.128   7.505  0.00  0.00    +0.277 C 
ATOM      8  O   UNL     1      -5.548   3.080   6.865  0.00  0.00    -0.491 OA
ENDBRANCH   1   8
BRANCH   6   9
ATOM      9  O   UNL     1      -3.731   1.203   7.345  0.00  0.00    -0.503 OA
ATOM     10  H   UNL     1      -4.163   1.855   7.919  0.00  0.00    +0.292 HD
ENDBRANCH   6   9
BRANCH   5  11
ATOM     11  C   UNL     1      -3.219  -0.984   5.504  0.00  0.00    +0.012 C 
ATOM     12  C   UNL     1      -3.068  -2.041   4.688  0.00  0.00    +0.009 C 
BRANCH  12  13
ATOM     13  C   UNL     1      -2.102  -3.134   4.908  0.00  0.00    -0.021 A 
ATOM     14  C   UNL     1      -1.934  -4.202   4.014  0.00  0.00    +0.057 A 
ATOM     15  C   UNL     1      -1.002  -5.239   4.232  0.00  0.00    +0.162 A 
ATOM     16  C   UNL     1      -0.216  -5.183   5.384  0.00  0.00    +0.158 A 
ATOM     17  C   UNL     1      -0.358  -4.114   6.276  0.00  0.00    +0.050 A 
ATOM     18  C   UNL     1      -1.284  -3.095   6.038  0.00  0.00    +0.012 A 
BRANCH  16  19
ATOM     19  O   UNL     1       0.723  -6.091   5.780  0.00  0.00    -0.503 OA
ATOM     20  H   UNL     1       0.400  -6.987   5.644  0.00  0.00    +0.292 HD
ENDBRANCH  16  19
BRANCH  15  21
ATOM     21  O   UNL     1      -1.046  -6.163   3.228  0.00  0.00    -0.491 OA
ATOM     22  C   UNL     1      -1.939  -6.038   2.140  0.00  0.00    +0.277 C 
ENDBRANCH  15  21
ENDBRANCH  12  13
ENDBRANCH   5  11
BRANCH   3  23
ATOM     23  C   UNL     1      -6.562   1.036   2.457  0.00  0.00    +0.015 C 
ATOM     24  C   UNL     1      -6.438   0.045   1.557  0.00  0.00    +0.092 C 
BRANCH  24  25
ATOM     25  C   UNL     1      -7.234   0.083   0.316  0.00  0.00    +0.330 C 
ATOM     26  O   UNL     1      -7.185  -0.758  -0.562  0.00  0.00    -0.246 OA
BRANCH  25  27
ATOM     27  O   UNL     1      -8.040   1.161   0.259  0.00  0.00    -0.478 OA
ATOM     28  H   UNL     1      -7.594   2.027   0.291  0.00  0.00    +0.295 HD
ENDBRANCH  25  27
ENDBRANCH  24  25
ENDBRANCH   3  23
TORSDOF 9
ENDMDL
MODEL 3
REMARK VINA RESULT:     0.000      9.652     14.573
REMARK INTER + INTRA:          -0.797
REMARK INTER:                   0.000
REMARK INTRA:                  -0.797
REMARK UNBOUND:                -0.797
REMARK  Name = 
REMARK  11 active torsions:
REMARK  status: ('A' for Active; 'I' for Inactive)
REMARK    1  A    between atoms: C_1  and  O_2
REMARK    2  A    between atoms: O_2  and  C_3
REMARK    3  A    between atoms: C_5  and  C_21
REMARK    4  A    between atoms: C_7  and  C_10
REMARK    5  A    between atoms: C_8  and  O_9
REMARK    6  A    between atoms: C_11  and  C_12
REMARK    7  A    between atoms: C_14  and  O_19
REMARK    8  A    between atoms: C_15  and  O_18
REMARK    9  A    between atoms: O_19  and  C_20
REMARK   10  A    between atoms: C_22  and  C_23
REMARK   11  A    between atoms: C_23  and  O_25
REMARK                            x       y       z     vdW  Elec       q    Type
REMARK                         _______ _______ _______ _____ _____    ______ ____
ROOT
ATOM      1  C   UNL     1      -5.675  -6.244  -0.136  0.00  0.00    +0.162 A 
ATOM      2  C   UNL     1      -5.275  -6.743  -1.378  0.00  0.00    +0.057 A 
ATOM      3  C   UNL     1      -4.196  -6.176  -2.073  0.00  0.00    -0.021 A 
ATOM      4  C   UNL     1      -3.483  -5.122  -1.481  0.00  0.00    +0.019 A 
ATOM      5  C   UNL     1      -3.856  -4.613  -0.227  0.00  0.00    +0.021 A 
ATOM      6  C   UNL     1      -4.964  -5.174   0.431  0.00  0.00    +0.166 A 
ENDROOT
BRANCH   1   8
ATOM      7  C   UNL     1      -6.629  -8.074   1.071  0.00  0.00    +0.277 C 
ATOM      8  O   UNL     1      -6.724  -6.737   0.598  0.00  0.00    -0.491 OA
ENDBRANCH   1   8
BRANCH   6   9
ATOM      9  O   UNL     1      -5.378  -4.706   1.655  0.00  0.00    -0.503 OA
ATOM     10  H   UNL     1      -6.126  -5.242   1.962  0.00  0.00    +0.292 HD
ENDBRANCH   6   9
BRANCH   5  11
ATOM     11  C   UNL     1      -3.042  -3.546   0.376  0.00  0.00    +0.012 C 
ATOM     12  C   UNL     1      -1.908  -3.090  -0.181  0.00  0.00    +0.009 C 
BRANCH  12  13
ATOM     13  C   UNL     1      -1.094  -1.988   0.367  0.00  0.00    -0.021 A 
ATOM     14  C   UNL     1       0.063  -1.502  -0.262  0.00  0.00    +0.057 A 
ATOM     15  C   UNL     1       0.830  -0.442   0.267  0.00  0.00    +0.162 A 
ATOM     16  C   UNL     1       0.405   0.142   1.463  0.00  0.00    +0.158 A 
ATOM     17  C   UNL     1      -0.756  -0.320   2.092  0.00  0.00    +0.050 A 
ATOM     18  C   UNL     1      -1.504  -1.367   1.547  0.00  0.00    +0.012 A 
BRANCH  16  19
ATOM     19  O   UNL     1       1.015   1.158   2.139  0.00  0.00    -0.503 OA
ATOM     20  H   UNL     1       0.727   2.009   1.796  0.00  0.00    +0.292 HD
ENDBRANCH  16  19
BRANCH  15  21
ATOM     21  O   UNL     1       1.911  -0.171  -0.521  0.00  0.00    -0.491 OA
ATOM     22  C   UNL     1       2.171  -0.902  -1.703  0.00  0.00    +0.277 C 
ENDBRANCH  15  21
ENDBRANCH  12  13
ENDBRANCH   5  11
BRANCH   3  23
ATOM     23  C   UNL     1      -3.747  -6.706  -3.372  0.00  0.00    +0.015 C 
ATOM     24  C   UNL     1      -2.654  -6.276  -4.028  0.00  0.00    +0.092 C 
BRANCH  24  25
ATOM     25  C   UNL     1      -2.302  -6.873  -5.329  0.00  0.00    +0.330 C 
ATOM     26  O   UNL     1      -1.343  -6.545  -6.003  0.00  0.00    -0.246 OA
BRANCH  25  27
ATOM     27  O   UNL     1      -3.164  -7.841  -5.697  0.00  0.00    -0.478 OA
ATOM     28  H   UNL     1      -2.839  -8.755  -5.611  0.00  0.00    +0.295 HD
ENDBRANCH  25  27
ENDBRANCH  24  25
ENDBRANCH   3  23
TORSDOF 9
ENDMDL
MODEL 4
REMARK VINA RESULT:     0.000      5.759     10.613
REMARK INTER + INTRA:          -0.797
REMARK INTER:                   0.000
REMARK INTRA:                  -0.797
REMARK UNBOUND:                -0.797
REMARK  Name = 
REMARK  11 active torsions:
REMARK  status: ('A' for Active; 'I' for Inactive)
REMARK    1  A    between atoms: C_1  and  O_2
REMARK    2  A    between atoms: O_2  and  C_3
REMARK    3  A    between atoms: C_5  and  C_21
REMARK    4  A    between atoms: C_7  and  C_10
REMARK    5  A    between atoms: C_8  and  O_9
REMARK    6  A    between atoms: C_11  and  C_12
REMARK    7  A    between atoms: C_14  and  O_19
REMARK    8  A    between atoms: C_15  and  O_18
REMARK    9  A    between atoms: O_19  and  C_20
REMARK   10  A    between atoms: C_22  and  C_23
REMARK   11  A    between atoms: C_23  and  O_25
REMARK                            x       y       z     vdW  Elec       q    Type
REMARK                         _______ _______ _______ _____ _____    ______ ____
ROOT
ATOM      1  C   UNL     1       1.558  -0.451   5.238  0.00  0.00    +0.162 A 
ATOM      2  C   UNL     1       2.453   0.440   4.641  0.00  0.00    +0.057 A 
ATOM      3  C   UNL     1       2.175   1.020   3.393  0.00  0.00    -0.021 A 
ATOM      4  C   UNL     1       0.953   0.731   2.766  0.00  0.00    +0.019 A 
ATOM      5  C   UNL     1       0.031  -0.149   3.353  0.00  0.00    +0.021 A 
ATOM      6  C   UNL     1       0.350  -0.745   4.585  0.00  0.00    +0.166 A 
ENDROOT
BRANCH   1   8
ATOM      7  C   UNL     1       1.845  -0.239   7.602  0.00  0.00    +0.277 C 
ATOM      8  O   UNL     1       1.763  -1.064   6.449  0.00  0.00    -0.491 OA
ENDBRANCH   1   8
BRANCH   6   9
ATOM      9  O   UNL     1      -0.512  -1.622   5.198  0.00  0.00    -0.503 OA
ATOM     10  H   UNL     1      -1.383  -1.556   4.778  0.00  0.00    +0.292 HD
ENDBRANCH   6   9
BRANCH   5  11
ATOM     11  C   UNL     1      -1.260  -0.375   2.683  0.00  0.00    +0.012 C 
ATOM     12  C   UNL     1      -1.632   0.286   1.574  0.00  0.00    +0.009 C 
BRANCH  12  13
ATOM     13  C   UNL     1      -2.893   0.050   0.846  0.00  0.00    -0.021 A 
ATOM     14  C   UNL     1      -3.234   0.723  -0.337  0.00  0.00    +0.057 A 
ATOM     15  C   UNL     1      -4.441   0.484  -1.029  0.00  0.00    +0.162 A 
ATOM     16  C   UNL     1      -5.319  -0.468  -0.508  0.00  0.00    +0.158 A 
ATOM     17  C   UNL     1      -4.984  -1.162   0.661  0.00  0.00    +0.050 A 
ATOM     18  C   UNL     1      -3.781  -0.913   1.327  0.00  0.00    +0.012 A 
BRANCH  16  19
ATOM     19  O   UNL     1      -6.533  -0.828  -1.016  0.00  0.00    -0.503 OA
ATOM     20  H   UNL     1      -7.037  -1.321  -0.362  0.00  0.00    +0.292 HD
ENDBRANCH  16  19
BRANCH  15  21
ATOM     21  O   UNL     1      -4.542   1.276  -2.136  0.00  0.00    -0.491 OA
ATOM     22  C   UNL     1      -3.531   2.200  -2.485  0.00  0.00    +0.277 C 
ENDBRANCH  15  21
ENDBRANCH  12  13
ENDBRANCH   5  11
BRANCH   3  23
ATOM     23  C   UNL     1       3.098   1.979   2.762  0.00  0.00    +0.015 C 
ATOM     24  C   UNL     1       2.833   2.647   1.626  0.00  0.00    +0.092 C 
BRANCH  24  25
ATOM     25  C   UNL     1       3.834   3.580   1.077  0.00  0.00    +0.330 C 
ATOM     26  O   UNL     1       3.693   4.221   0.051  0.00  0.00    -0.246 OA
BRANCH  25  27
ATOM     27  O   UNL     1       4.938   3.654   1.846  0.00  0.00    -0.478 OA
ATOM     28  H   UNL     1       5.786   3.527   1.384  0.00  0.00    +0.295 HD
ENDBRANCH  25  27
ENDBRANCH  24  25
ENDBRANCH   3  23
TORSDOF 9
ENDMDL
MODEL 5
REMARK VINA RESULT:     0.000      5.104      9.306
REMARK INTER + INTRA:          -0.797
REMARK INTER:                   0.000
REMARK INTRA:                  -0.797
REMARK UNBOUND:                -0.797
REMARK  Name = 
REMARK  11 active torsions:
REMARK  status: ('A' for Active; 'I' for Inactive)
REMARK    1  A    between atoms: C_1  and  O_2
REMARK    2  A    between atoms: O_2  and  C_3
REMARK    3  A    between atoms: C_5  and  C_21
REMARK    4  A    between atoms: C_7  and  C_10
REMARK    5  A    between atoms: C_8  and  O_9
REMARK    6  A    between atoms: C_11  and  C_12
REMARK    7  A    between atoms: C_14  and  O_19
REMARK    8  A    between atoms: C_15  and  O_18
REMARK    9  A    between atoms: O_19  and  C_20
REMARK   10  A    between atoms: C_22  and  C_23
REMARK   11  A    between atoms: C_23  and  O_25
REMARK                            x       y       z     vdW  Elec       q    Type
REMARK                         _______ _______ _______ _____ _____    ______ ____
ROOT
ATOM      1  C   UNL     1       3.321   4.712  -0.928  0.00  0.00    +0.162 A 
ATOM      2  C   UNL     1       2.544   5.477  -0.055  0.00  0.00    +0.057 A 
ATOM      3  C   UNL     1       1.315   5.002   0.428  0.00  0.00    -0.021 A 
ATOM      4  C   UNL     1       0.891   3.715   0.059  0.00  0.00    +0.019 A 
ATOM      5  C   UNL     1       1.661   2.921  -0.804  0.00  0.00    +0.021 A 
ATOM      6  C   UNL     1       2.870   3.436  -1.303  0.00  0.00    +0.166 A 
ENDROOT
BRANCH   1   8
ATOM      7  C   UNL     1       5.600   5.324  -0.543  0.00  0.00    +0.277 C 
ATOM      8  O   UNL     1       4.526   5.112  -1.449  0.00  0.00    -0.491 OA
ENDBRANCH   1   8
BRANCH   6   9
ATOM      9  O   UNL     1       3.657   2.705  -2.161  0.00  0.00    -0.503 OA
ATOM     10  H   UNL     1       4.228   3.310  -2.659  0.00  0.00    +0.292 HD
ENDBRANCH   6   9
BRANCH   5  11
ATOM     11  C   UNL     1       1.201   1.558  -1.115  0.00  0.00    +0.012 C 
ATOM     12  C   UNL     1       0.117   1.007  -0.545  0.00  0.00    +0.009 C 
BRANCH  12  13
ATOM     13  C   UNL     1      -0.404  -0.335  -0.869  0.00  0.00    -0.021 A 
ATOM     14  C   UNL     1      -1.566  -0.868  -0.290  0.00  0.00    +0.057 A 
ATOM     15  C   UNL     1      -2.059  -2.150  -0.613  0.00  0.00    +0.162 A 
ATOM     16  C   UNL     1      -1.356  -2.906  -1.553  0.00  0.00    +0.158 A 
ATOM     17  C   UNL     1      -0.206  -2.381  -2.152  0.00  0.00    +0.050 A 
ATOM     18  C   UNL     1       0.262  -1.107  -1.822  0.00  0.00    +0.012 A 
BRANCH  16  19
ATOM     19  O   UNL     1      -1.659  -4.165  -1.983  0.00  0.00    -0.503 OA
ATOM     20  H   UNL     1      -1.087  -4.811  -1.556  0.00  0.00    +0.292 HD
ENDBRANCH  16  19
BRANCH  15  21
ATOM     21  O   UNL     1      -3.189  -2.439   0.097  0.00  0.00    -0.491 OA
ATOM     22  C   UNL     1      -3.739  -1.525   1.025  0.00  0.00    +0.277 C 
ENDBRANCH  15  21
ENDBRANCH  12  13
ENDBRANCH   5  11
BRANCH   3  23
ATOM     23  C   UNL     1       0.496   5.786   1.368  0.00  0.00    +0.015 C 
ATOM     24  C   UNL     1      -0.631   5.336   1.947  0.00  0.00    +0.092 C 
BRANCH  24  25
ATOM     25  C   UNL     1      -1.379   6.211   2.868  0.00  0.00    +0.330 C 
ATOM     26  O   UNL     1      -2.412   5.900   3.431  0.00  0.00    -0.246 OA
BRANCH  25  27
ATOM     27  O   UNL     1      -0.784   7.410   3.029  0.00  0.00    -0.478 OA
ATOM     28  H   UNL     1      -0.725   7.965   2.231  0.00  0.00    +0.295 HD
ENDBRANCH  25  27
ENDBRANCH  24  25
ENDBRANCH   3  23
TORSDOF 9
ENDMDL
MODEL 6
REMARK VINA RESULT:     0.000      8.708     13.043
REMARK INTER + INTRA:          -0.797
REMARK INTER:                   0.000
REMARK INTRA:                  -0.797
REMARK UNBOUND:                -0.797
REMARK  Name = 
REMARK  11 active torsions:
REMARK  status: ('A' for Active; 'I' for Inactive)
REMARK    1  A    between atoms: C_1  and  O_2
REMARK    2  A    between atoms: O_2  and  C_3
REMARK    3  A    between atoms: C_5  and  C_21
REMARK    4  A    between atoms: C_7  and  C_10
REMARK    5  A    between atoms: C_8  and  O_9
REMARK    6  A    between atoms: C_11  and  C_12
REMARK    7  A    between atoms: C_14  and  O_19
REMARK    8  A    between atoms: C_15  and  O_18
REMARK    9  A    between atoms: O_19  and  C_20
REMARK   10  A    between atoms: C_22  and  C_23
REMARK   11  A    between atoms: C_23  and  O_25
REMARK                            x       y       z     vdW  Elec       q    Type
REMARK                         _______ _______ _______ _____ _____    ______ ____
ROOT
ATOM      1  C   UNL     1      -0.046  -6.969   1.918  0.00  0.00    +0.162 A 
ATOM      2  C   UNL     1       0.776  -8.021   1.508  0.00  0.00    +0.057 A 
ATOM      3  C   UNL     1       1.817  -7.813   0.590  0.00  0.00    -0.021 A 
ATOM      4  C   UNL     1       2.058  -6.512   0.119  0.00  0.00    +0.019 A 
ATOM      5  C   UNL     1       1.256  -5.436   0.527  0.00  0.00    +0.021 A 
ATOM      6  C   UNL     1       0.197  -5.679   1.418  0.00  0.00    +0.166 A 
ENDROOT
BRANCH   1   8
ATOM      7  C   UNL     1      -0.780  -7.486   4.134  0.00  0.00    +0.277 C 
ATOM      8  O   UNL     1      -1.087  -7.095   2.803  0.00  0.00    -0.491 OA
ENDBRANCH   1   8
BRANCH   6   9
ATOM      9  O   UNL     1      -0.626  -4.663   1.842  0.00  0.00    -0.503 OA
ATOM     10  H   UNL     1      -1.113  -4.312   1.080  0.00  0.00    +0.292 HD
ENDBRANCH   6   9
BRANCH   5  11
ATOM     11  C   UNL     1       1.585  -4.084   0.048  0.00  0.00    +0.012 C 
ATOM     12  C   UNL     1       2.670  -3.819  -0.699  0.00  0.00    +0.009 C 
BRANCH  12  13
ATOM     13  C   UNL     1       3.005  -2.487  -1.239  0.00  0.00    -0.021 A 
ATOM     14  C   UNL     1       4.121  -2.249  -2.056  0.00  0.00    +0.057 A 
ATOM     15  C   UNL     1       4.427  -0.972  -2.574  0.00  0.00    +0.162 A 
ATOM     16  C   UNL     1       3.573   0.086  -2.257  0.00  0.00    +0.158 A 
ATOM     17  C   UNL     1       2.446  -0.140  -1.460  0.00  0.00    +0.050 A 
ATOM     18  C   UNL     1       2.158  -1.413  -0.962  0.00  0.00    +0.012 A 
BRANCH  16  19
ATOM     19  O   UNL     1       3.706   1.389  -2.643  0.00  0.00    -0.503 OA
ATOM     20  H   UNL     1       3.014   1.625  -3.269  0.00  0.00    +0.292 HD
ENDBRANCH  16  19
BRANCH  15  21
ATOM     21  O   UNL     1       5.569  -1.002  -3.321  0.00  0.00    -0.491 OA
ATOM     22  C   UNL     1       6.304  -2.195  -3.509  0.00  0.00    +0.277 C 
ENDBRANCH  15  21
ENDBRANCH  12  13
ENDBRANCH   5  11
BRANCH   3  23
ATOM     23  C   UNL     1       2.708  -8.907   0.167  0.00  0.00    +0.015 C 
ATOM     24  C   UNL     1       3.785  -8.744  -0.621  0.00  0.00    +0.092 C 
BRANCH  24  25
ATOM     25  C   UNL     1       4.603  -9.914  -0.990  0.00  0.00    +0.330 C 
ATOM     26  O   UNL     1       5.588  -9.871  -1.705  0.00  0.00    -0.246 OA
BRANCH  25  27
ATOM     27  O   UNL     1       4.143 -11.053  -0.438  0.00  0.00    -0.478 OA
ATOM     28  H   UNL     1       3.317 -10.975   0.072  0.00  0.00    +0.295 HD
ENDBRANCH  25  27
ENDBRANCH  24  25
ENDBRANCH   3  23
TORSDOF 9
ENDMDL
MODEL 7
REMARK VINA RESULT:     0.000     10.778     13.758
REMARK INTER + INTRA:          -0.797
REMARK INTER:                   0.000
REMARK INTRA:                  -0.797
REMARK UNBOUND:                -0.797
REMARK  Name = 
REMARK  11 active torsions:
REMARK  status: ('A' for Active; 'I' for Inactive)
REMARK    1  A    between atoms: C_1  and  O_2
REMARK    2  A    between atoms: O_2  and  C_3
REMARK    3  A    between atoms: C_5  and  C_21
REMARK    4  A    between atoms: C_7  and  C_10
REMARK    5  A    between atoms: C_8  and  O_9
REMARK    6  A    between atoms: C_11  and  C_12
REMARK    7  A    between atoms: C_14  and  O_19
REMARK    8  A    between atoms: C_15  and  O_18
REMARK    9  A    between atoms: O_19  and  C_20
REMARK   10  A    between atoms: C_22  and  C_23
REMARK   11  A    between atoms: C_23  and  O_25
REMARK                            x       y       z     vdW  Elec       q    Type
REMARK                         _______ _______ _______ _____ _____    ______ ____
ROOT
ATOM      1  C   UNL     1      -4.082   3.203  -4.883  0.00  0.00    +0.162 A 
ATOM      2  C   UNL     1      -4.073   4.517  -5.356  0.00  0.00    +0.057 A 
ATOM      3  C   UNL     1      -4.700   5.549  -4.641  0.00  0.00    -0.021 A 
ATOM      4  C   UNL     1      -5.302   5.254  -3.407  0.00  0.00    +0.019 A 
ATOM      5  C   UNL     1      -5.312   3.944  -2.904  0.00  0.00    +0.021 A 
ATOM      6  C   UNL     1      -4.710   2.922  -3.658  0.00  0.00    +0.166 A 
ENDROOT
BRANCH   1   8
ATOM      7  C   UNL     1      -2.090   2.160  -5.696  0.00  0.00    +0.277 C 
ATOM      8  O   UNL     1      -3.501   2.140  -5.529  0.00  0.00    -0.491 OA
ENDBRANCH   1   8
BRANCH   6   9
ATOM      9  O   UNL     1      -4.700   1.621  -3.217  0.00  0.00    -0.503 OA
ATOM     10  H   UNL     1      -5.334   1.529  -2.490  0.00  0.00    +0.292 HD
ENDBRANCH   6   9
BRANCH   5  11
ATOM     11  C   UNL     1      -5.906   3.696  -1.581  0.00  0.00    +0.012 C 
ATOM     12  C   UNL     1      -6.369   4.682  -0.793  0.00  0.00    +0.009 C 
BRANCH  12  13
ATOM     13  C   UNL     1      -7.017   4.469   0.515  0.00  0.00    -0.021 A 
ATOM     14  C   UNL     1      -7.532   5.515   1.296  0.00  0.00    +0.057 A 
ATOM     15  C   UNL     1      -8.156   5.298   2.543  0.00  0.00    +0.162 A 
ATOM     16  C   UNL     1      -8.265   3.985   3.003  0.00  0.00    +0.158 A 
ATOM     17  C   UNL     1      -7.773   2.929   2.227  0.00  0.00    +0.050 A 
ATOM     18  C   UNL     1      -7.163   3.166   0.992  0.00  0.00    +0.012 A 
BRANCH  16  19
ATOM     19  O   UNL     1      -8.815   3.573   4.182  0.00  0.00    -0.503 OA
ATOM     20  H   UNL     1      -8.862   4.306   4.804  0.00  0.00    +0.292 HD
ENDBRANCH  16  19
BRANCH  15  21
ATOM     21  O   UNL     1      -8.553   6.476   3.109  0.00  0.00    -0.491 OA
ATOM     22  C   UNL     1      -8.332   7.719   2.473  0.00  0.00    +0.277 C 
ENDBRANCH  15  21
ENDBRANCH  12  13
ENDBRANCH   5  11
BRANCH   3  23
ATOM     23  C   UNL     1      -4.678   6.944  -5.114  0.00  0.00    +0.015 C 
ATOM     24  C   UNL     1      -5.164   7.987  -4.418  0.00  0.00    +0.092 C 
BRANCH  24  25
ATOM     25  C   UNL     1      -5.097   9.343  -4.992  0.00  0.00    +0.330 C 
ATOM     26  O   UNL     1      -5.518  10.346  -4.447  0.00  0.00    -0.246 OA
BRANCH  25  27
ATOM     27  O   UNL     1      -4.504   9.356  -6.202  0.00  0.00    -0.478 OA
ATOM     28  H   UNL     1      -4.541   8.521  -6.702  0.00  0.00    +0.295 HD
ENDBRANCH  25  27
ENDBRANCH  24  25
ENDBRANCH   3  23
TORSDOF 9
ENDMDL
MODEL 8
REMARK VINA RESULT:     0.000     10.761     14.175
REMARK INTER + INTRA:          -0.797
REMARK INTER:                   0.000
REMARK INTRA:                  -0.797
REMARK UNBOUND:                -0.797
REMARK  Name = 
REMARK  11 active torsions:
REMARK  status: ('A' for Active; 'I' for Inactive)
REMARK    1  A    between atoms: C_1  and  O_2
REMARK    2  A    between atoms: O_2  and  C_3
REMARK    3  A    between atoms: C_5  and  C_21
REMARK    4  A    between atoms: C_7  and  C_10
REMARK    5  A    between atoms: C_8  and  O_9
REMARK    6  A    between atoms: C_11  and  C_12
REMARK    7  A    between atoms: C_14  and  O_19
REMARK    8  A    between atoms: C_15  and  O_18
REMARK    9  A    between atoms: O_19  and  C_20
REMARK   10  A    between atoms: C_22  and  C_23
REMARK   11  A    between atoms: C_23  and  O_25
REMARK                            x       y       z     vdW  Elec       q    Type
REMARK                         _______ _______ _______ _____ _____    ______ ____
ROOT
ATOM      1  C   UNL     1       3.961  -7.310  -7.828  0.00  0.00    +0.162 A 
ATOM      2  C   UNL     1       5.099  -6.982  -7.087  0.00  0.00    +0.057 A 
ATOM      3  C   UNL     1       5.064  -5.972  -6.114  0.00  0.00    -0.021 A 
ATOM      4  C   UNL     1       3.849  -5.319  -5.854  0.00  0.00    +0.019 A 
ATOM      5  C   UNL     1       2.689  -5.640  -6.574  0.00  0.00    +0.021 A 
ATOM      6  C   UNL     1       2.760  -6.630  -7.570  0.00  0.00    +0.166 A 
ENDROOT
BRANCH   1   8
ATOM      7  C   UNL     1       4.153  -9.622  -8.408  0.00  0.00    +0.277 C 
ATOM      8  O   UNL     1       3.919  -8.276  -8.802  0.00  0.00    -0.491 OA
ENDBRANCH   1   8
BRANCH   6   9
ATOM      9  O   UNL     1       1.656  -6.975  -8.312  0.00  0.00    -0.503 OA
ATOM     10  H   UNL     1       1.676  -7.929  -8.483  0.00  0.00    +0.292 HD
ENDBRANCH   6   9
BRANCH   5  11
ATOM     11  C   UNL     1       1.427  -4.967  -6.225  0.00  0.00    +0.012 C 
ATOM     12  C   UNL     1       1.317  -4.115  -5.192  0.00  0.00    +0.009 C 
BRANCH  12  13
ATOM     13  C   UNL     1       0.085  -3.383  -4.843  0.00  0.00    -0.021 A 
ATOM     14  C   UNL     1       0.011  -2.463  -3.785  0.00  0.00    +0.057 A 
ATOM     15  C   UNL     1      -1.171  -1.763  -3.465  0.00  0.00    +0.162 A 
ATOM     16  C   UNL     1      -2.305  -1.999  -4.245  0.00  0.00    +0.158 A 
ATOM     17  C   UNL     1      -2.242  -2.899  -5.315  0.00  0.00    +0.050 A 
ATOM     18  C   UNL     1      -1.059  -3.578  -5.618  0.00  0.00    +0.012 A 
BRANCH  16  19
ATOM     19  O   UNL     1      -3.539  -1.439  -4.086  0.00  0.00    -0.503 OA
ATOM     20  H   UNL     1      -3.485  -0.481  -4.166  0.00  0.00    +0.292 HD
ENDBRANCH  16  19
BRANCH  15  21
ATOM     21  O   UNL     1      -0.986  -0.946  -2.387  0.00  0.00    -0.491 OA
ATOM     22  C   UNL     1       0.258  -0.863  -1.722  0.00  0.00    +0.277 C 
ENDBRANCH  15  21
ENDBRANCH  12  13
ENDBRANCH   5  11
BRANCH   3  23
ATOM     23  C   UNL     1       6.250  -5.632  -5.308  0.00  0.00    +0.015 C 
ATOM     24  C   UNL     1       6.246  -4.754  -4.289  0.00  0.00    +0.092 C 
BRANCH  24  25
ATOM     25  C   UNL     1       7.494  -4.483  -3.554  0.00  0.00    +0.330 C 
ATOM     26  O   UNL     1       7.595  -3.699  -2.628  0.00  0.00    -0.246 OA
BRANCH  25  27
ATOM     27  O   UNL     1       8.529  -5.210  -4.019  0.00  0.00    -0.478 OA
ATOM     28  H   UNL     1       8.729  -6.027  -3.528  0.00  0.00    +0.295 HD
ENDBRANCH  25  27
ENDBRANCH  24  25
ENDBRANCH   3  23
TORSDOF 9
ENDMDL
MODEL 9
REMARK VINA RESULT:     0.000      9.761     12.973
REMARK INTER + INTRA:          -0.797
REMARK INTER:                   0.000
REMARK INTRA:                  -0.797
REMARK UNBOUND:                -0.797
REMARK  Name = 
REMARK  11 active torsions:
REMARK  status: ('A' for Active; 'I' for Inactive)
REMARK    1  A    between atoms: C_1  and  O_2
REMARK    2  A    between atoms: O_2  and  C_3
REMARK    3  A    between atoms: C_5  and  C_21
REMARK    4  A    between atoms: C_7  and  C_10
REMARK    5  A    between atoms: C_8  and  O_9
REMARK    6  A    between atoms: C_11  and  C_12
REMARK    7  A    between atoms: C_14  and  O_19
REMARK    8  A    between atoms: C_15  and  O_18
REMARK    9  A    between atoms: O_19  and  C_20
REMARK   10  A    between atoms: C_22  and  C_23
REMARK   11  A    between atoms: C_23  and  O_25
REMARK                            x       y       z     vdW  Elec       q    Type
REMARK                         _______ _______ _______ _____ _____    ______ ____
ROOT
ATOM      1  C   UNL     1      -7.231  -1.419   3.120  0.00  0.00    +0.162 A 
ATOM      2  C   UNL     1      -6.019  -2.011   3.484  0.00  0.00    +0.057 A 
ATOM      3  C   UNL     1      -4.869  -1.850   2.695  0.00  0.00    -0.021 A 
ATOM      4  C   UNL     1      -4.937  -1.040   1.550  0.00  0.00    +0.019 A 
ATOM      5  C   UNL     1      -6.139  -0.423   1.173  0.00  0.00    +0.021 A 
ATOM      6  C   UNL     1      -7.285  -0.631   1.959  0.00  0.00    +0.166 A 
ENDROOT
BRANCH   1   8
ATOM      7  C   UNL     1      -8.429  -0.995   5.146  0.00  0.00    +0.277 C 
ATOM      8  O   UNL     1      -8.399  -1.538   3.833  0.00  0.00    -0.491 OA
ENDBRANCH   1   8
BRANCH   6   9
ATOM      9  O   UNL     1      -8.490  -0.059   1.629  0.00  0.00    -0.503 OA
ATOM     10  H   UNL     1      -8.352   0.882   1.439  0.00  0.00    +0.292 HD
ENDBRANCH   6   9
BRANCH   5  11
ATOM     11  C   UNL     1      -6.144   0.461  -0.004  0.00  0.00    +0.012 C 
ATOM     12  C   UNL     1      -5.030   0.771  -0.688  0.00  0.00    +0.009 C 
BRANCH  12  13
ATOM     13  C   UNL     1      -5.002   1.611  -1.900  0.00  0.00    -0.021 A 
ATOM     14  C   UNL     1      -3.828   1.881  -2.621  0.00  0.00    +0.057 A 
ATOM     15  C   UNL     1      -3.815   2.680  -3.784  0.00  0.00    +0.162 A 
ATOM     16  C   UNL     1      -5.027   3.212  -4.228  0.00  0.00    +0.158 A 
ATOM     17  C   UNL     1      -6.209   2.937  -3.531  0.00  0.00    +0.050 A 
ATOM     18  C   UNL     1      -6.200   2.138  -2.384  0.00  0.00    +0.012 A 
BRANCH  16  19
ATOM     19  O   UNL     1      -5.219   4.018  -5.313  0.00  0.00    -0.503 OA
ATOM     20  H   UNL     1      -5.099   4.941  -5.070  0.00  0.00    +0.292 HD
ENDBRANCH  16  19
BRANCH  15  21
ATOM     21  O   UNL     1      -2.552   2.804  -4.285  0.00  0.00    -0.491 OA
ATOM     22  C   UNL     1      -1.442   2.185  -3.666  0.00  0.00    +0.277 C 
ENDBRANCH  15  21
ENDBRANCH  12  13
ENDBRANCH   5  11
BRANCH   3  23
ATOM     23  C   UNL     1      -3.578  -2.448   3.078  0.00  0.00    +0.015 C 
ATOM     24  C   UNL     1      -2.423  -2.237   2.423  0.00  0.00    +0.092 C 
BRANCH  24  25
ATOM     25  C   UNL     1      -1.189  -2.894   2.889  0.00  0.00    +0.330 C 
ATOM     26  O   UNL     1      -0.100  -2.775   2.358  0.00  0.00    -0.246 OA
BRANCH  25  27
ATOM     27  O   UNL     1      -1.395  -3.647   3.987  0.00  0.00    -0.478 OA
ATOM     28  H   UNL     1      -1.886  -4.476   3.847  0.00  0.00    +0.295 HD
ENDBRANCH  25  27
ENDBRANCH  24  25
ENDBRANCH   3  23
TORSDOF 9
ENDMDL
