MODEL 1
REMARK minimizedAffinity -5.84508324
REMARK minimizedRMSD -1
REMARK  23 active torsions:
REMARK  status: ('A' for Active; 'I' for Inactive)
REMARK    1  A    between atoms: C2_2  and  C3_3 
REMARK    2  A    between atoms: C3_3  and  C4_4 
REMARK    3  A    between atoms: C4_4  and  C5_5 
REMARK    4  A    between atoms: C5_5  and  O1_6 
REMARK    5  A    between atoms: O1_6  and  C6_7 
REMARK    6  A    between atoms: C9_10  and  C12_13 
REMARK    7  A    between atoms: C15_16  and  C18_19 
REMARK    8  A    between atoms: C21_22  and  C24_25 
REMARK       I    between atoms: C24_25  and  N1_27 
REMARK    9  A    between atoms: N1_27  and  C25_28 
REMARK   10  A    between atoms: C27_30  and  O17_82 
REMARK   11  A    between atoms: C28_31  and  O16_81 
REMARK   12  A    between atoms: C31_36  and  O15_80 
REMARK   13  A    between atoms: C35_42  and  C56_76 
REMARK   14  A    between atoms: C37_46  and  C48_65 
REMARK   15  A    between atoms: C41_52  and  O10_64 
REMARK   16  A    between atoms: C44_57  and  C46_61 
REMARK   17  A    between atoms: C46_61  and  O9_63 
REMARK   18  A    between atoms: C48_65  and  C49_66 
REMARK   19  A    between atoms: C48_65  and  O13_75 
REMARK   20  A    between atoms: C49_66  and  C50_67 
REMARK   21  A    between atoms: C49_66  and  O12_74 
REMARK   22  A    between atoms: C53_70  and  O11_73 
REMARK   23  A    between atoms: C56_76  and  O14_78 
ROOT
HETATM    1  C25 UNL     1      94.206 138.946  60.863  1.00  0.00     0.179 C 
HETATM    2  C26 UNL     1      95.314 138.079  61.501  1.00  0.00     0.071 C 
HETATM    3  C27 UNL     1      96.695 138.192  60.797  1.00  0.00     0.169 C 
HETATM    4  C28 UNL     1      96.924 137.109  59.704  1.00  0.00     0.249 C 
HETATM    5  N2  UNL     1      98.269 137.227  59.123  1.00  0.00    -0.331 N 
HETATM    6  C29 UNL     1      98.849 136.200  58.300  1.00  0.00     0.245 C 
HETATM    7  O3  UNL     1      98.132 135.251  57.883  1.00  0.00    -0.271 OA
HETATM    8  C30 UNL     1     100.330 136.249  57.966  1.00  0.00     0.208 C 
HETATM    9  C31 UNL     1     101.209 136.420  59.236  1.00  0.00     0.155 C 
HETATM   10  C32 UNL     1     102.416 135.485  59.035  1.00  0.00     0.031 C 
HETATM   11  C33 UNL     1     101.909 134.407  58.078  1.00  0.00     0.134 C 
HETATM   12  N3  UNL     1     100.815 135.017  57.337  1.00  0.00    -0.334 N 
HETATM   13  C34 UNL     1     100.304 134.394  56.141  1.00  0.00     0.246 C 
HETATM   14  O4  UNL     1     100.132 133.145  56.145  1.00  0.00    -0.271 OA
HETATM   15  C35 UNL     1     100.101 135.136  54.831  1.00  0.00     0.205 C 
HETATM   16  N4  UNL     1      99.334 136.380  55.012  1.00  0.00    -0.344 N 
HETATM   17  C36 UNL     1      99.384 137.468  54.078  1.00  0.00     0.243 C 
HETATM   18  O5  UNL     1     100.240 138.376  54.247  1.00  0.00    -0.271 OA
HETATM   19  C37 UNL     1      98.419 137.587  52.914  1.00  0.00     0.208 C 
HETATM   20  N5  UNL     1      97.468 138.679  53.150  1.00  0.00    -0.344 N 
HETATM   21  C38 UNL     1      96.699 138.828  54.353  1.00  0.00     0.241 C 
HETATM   22  O6  UNL     1      96.343 137.813  55.011  1.00  0.00    -0.271 OA
HETATM   23  C39 UNL     1      96.397 140.210  54.875  1.00  0.00     0.181 C 
HETATM   24  C40 UNL     1      97.685 140.922  55.298  1.00  0.00     0.068 C 
HETATM   25  C41 UNL     1      97.787 140.724  56.814  1.00  0.00     0.138 C 
HETATM   26  C42 UNL     1      96.350 140.474  57.285  1.00  0.00     0.158 C 
HETATM   27  N6  UNL     1      95.597 140.134  56.091  1.00  0.00    -0.334 N 
HETATM   28  C43 UNL     1      94.171 139.956  56.068  1.00  0.00     0.246 C 
HETATM   29  O7  UNL     1      93.496 140.569  55.196  1.00  0.00    -0.271 OA
HETATM   30  C44 UNL     1      93.501 138.983  57.018  1.00  0.00     0.205 C 
HETATM   31  N7  UNL     1      93.694 139.403  58.410  1.00  0.00    -0.344 N 
HETATM   32  C45 UNL     1      93.823 138.466  59.489  1.00  0.00     0.241 C 
HETATM   33  O8  UNL     1      93.582 137.243  59.300  1.00  0.00    -0.271 OA
HETATM   34  C58 UNL     1     103.616 136.246  58.452  1.00  0.00     0.014 C 
HETATM   35  H30 UNL     1      98.865 138.045  59.378  1.00  0.00     0.165 HD
HETATM   36  H37 UNL     1      98.450 136.296  55.554  1.00  0.00     0.163 HD
HETATM   37  H39 UNL     1      97.502 139.494  52.499  1.00  0.00     0.163 HD
HETATM   38  H47 UNL     1      93.729 140.427  58.623  1.00  0.00     0.163 HD
ENDROOT
BRANCH   1  39
HETATM   39  N1  UNL     1      93.021 138.945  61.723  1.00  0.00    -0.344 N 
HETATM   40  C24 UNL     1      92.120 140.058  61.789  1.00  0.00     0.252 C 
HETATM   41  O2  UNL     1      92.153 140.940  60.886  1.00  0.00    -0.268 OA
HETATM   42  H24 UNL     1      92.768 138.062  62.222  1.00  0.00     0.163 HD
BRANCH  40  43
HETATM   43  C21 UNL     1      91.160 140.205  62.910  1.00  0.00     0.032 A 
HETATM   44  C20 UNL     1      91.601 140.069  64.237  1.00  0.00     0.018 A 
HETATM   45  C19 UNL     1      90.698 140.151  65.299  1.00  0.00     0.013 A 
HETATM   46  C18 UNL     1      89.330 140.367  65.060  1.00  0.00    -0.026 A 
HETATM   47  C23 UNL     1      88.889 140.515  63.734  1.00  0.00     0.013 A 
HETATM   48  C22 UNL     1      89.792 140.434  62.670  1.00  0.00     0.018 A 
BRANCH  46  49
HETATM   49  C15 UNL     1      88.364 140.406  66.188  1.00  0.00    -0.026 A 
HETATM   50  C14 UNL     1      87.120 141.045  66.040  1.00  0.00     0.013 A 
HETATM   51  C13 UNL     1      86.215 141.093  67.104  1.00  0.00     0.013 A 
HETATM   52  C12 UNL     1      86.532 140.504  68.340  1.00  0.00    -0.026 A 
HETATM   53  C17 UNL     1      87.774 139.863  68.486  1.00  0.00     0.013 A 
HETATM   54  C16 UNL     1      88.680 139.815  67.423  1.00  0.00     0.013 A 
BRANCH  52  55
HETATM   55  C9  UNL     1      85.572 140.562  69.472  1.00  0.00    -0.026 A 
HETATM   56  C8  UNL     1      85.155 139.385  70.117  1.00  0.00     0.015 A 
HETATM   57  C7  UNL     1      84.250 139.441  71.182  1.00  0.00     0.037 A 
HETATM   58  C6  UNL     1      83.747 140.679  71.623  1.00  0.00     0.068 A 
HETATM   59  C11 UNL     1      84.158 141.850  70.978  1.00  0.00     0.037 A 
HETATM   60  C10 UNL     1      85.062 141.796  69.913  1.00  0.00     0.015 A 
BRANCH  58  61
HETATM   61  O1  UNL     1      82.842 140.788  72.689  1.00  0.00    -0.351 OA
BRANCH  61  62
HETATM   62  C5  UNL     1      81.514 141.296  72.571  1.00  0.00     0.175 C 
BRANCH  62  63
HETATM   63  C4  UNL     1      80.622 140.293  71.834  1.00  0.00     0.027 C 
BRANCH  63  64
HETATM   64  C3  UNL     1      80.305 140.694  70.383  1.00  0.00     0.002 C 
BRANCH  64  65
HETATM   65  C2  UNL     1      80.969 139.770  69.351  1.00  0.00    -0.004 C 
HETATM   66  C1  UNL     1      81.827 140.571  68.376  1.00  0.00     0.005 C 
ENDBRANCH  64  65
ENDBRANCH  63  64
ENDBRANCH  62  63
ENDBRANCH  61  62
ENDBRANCH  58  61
ENDBRANCH  52  55
ENDBRANCH  46  49
ENDBRANCH  40  43
ENDBRANCH   1  39
BRANCH   3  67
HETATM   67  O17 UNL     1      97.731 138.160  61.750  1.00  0.00    -0.391 OA
HETATM   68  H73 UNL     1      97.636 137.324  62.278  1.00  0.00     0.210 HD
ENDBRANCH   3  67
BRANCH   4  69
HETATM   69  O16 UNL     1      96.726 135.818  60.230  1.00  0.00    -0.374 OA
HETATM   70  H72 UNL     1      97.508 135.608  60.806  1.00  0.00     0.212 HD
ENDBRANCH   4  69
BRANCH  30  71
HETATM   71  C46 UNL     1      91.998 138.747  56.706  1.00  0.00     0.146 C 
HETATM   72  C47 UNL     1      91.072 139.692  57.487  1.00  0.00     0.042 C 
BRANCH  71  73
HETATM   73  O9  UNL     1      91.666 137.414  56.992  1.00  0.00    -0.393 OA
HETATM   74  H52 UNL     1      90.798 137.227  56.548  1.00  0.00     0.210 HD
ENDBRANCH  71  73
ENDBRANCH  30  71
BRANCH   9  75
HETATM   75  O15 UNL     1     100.533 136.071  60.424  1.00  0.00    -0.393 OA
HETATM   76  H71 UNL     1     100.253 135.120  60.353  1.00  0.00     0.210 HD
ENDBRANCH   9  75
BRANCH  25  77
HETATM   77  O10 UNL     1      98.626 139.638  57.124  1.00  0.00    -0.394 OA
HETATM   78  H53 UNL     1      98.228 138.819  56.725  1.00  0.00     0.210 HD
ENDBRANCH  25  77
BRANCH  15  79
HETATM   79  C56 UNL     1     101.428 135.323  54.032  1.00  0.00     0.146 C 
HETATM   80  C57 UNL     1     102.540 136.043  54.809  1.00  0.00     0.042 C 
BRANCH  79  81
HETATM   81  O14 UNL     1     101.887 134.086  53.546  1.00  0.00    -0.393 OA
HETATM   82  H67 UNL     1     102.199 133.546  54.320  1.00  0.00     0.210 HD
ENDBRANCH  79  81
ENDBRANCH  15  79
BRANCH  19  83
HETATM   83  C48 UNL     1      97.744 136.242  52.491  1.00  0.00     0.183 C 
BRANCH  83  84
HETATM   84  C49 UNL     1      97.122 136.227  51.062  1.00  0.00     0.182 C 
BRANCH  84  85
HETATM   85  C50 UNL     1      95.608 136.139  51.077  1.00  0.00    -0.027 A 
HETATM   86  C51 UNL     1      94.995 134.925  50.716  1.00  0.00     0.012 A 
HETATM   87  C52 UNL     1      93.602 134.819  50.651  1.00  0.00     0.037 A 
HETATM   88  C53 UNL     1      92.801 135.928  50.952  1.00  0.00     0.065 A 
HETATM   89  C54 UNL     1      93.398 137.140  51.310  1.00  0.00     0.037 A 
HETATM   90  C55 UNL     1      94.793 137.251  51.368  1.00  0.00     0.012 A 
BRANCH  88  91
HETATM   91  O11 UNL     1      91.411 135.832  50.903  1.00  0.00    -0.361 OA
HETATM   92  H60 UNL     1      90.951 134.961  50.663  1.00  0.00     0.217 HD
ENDBRANCH  88  91
ENDBRANCH  84  85
BRANCH  84  93
HETATM   93  O12 UNL     1      97.705 135.275  50.205  1.00  0.00    -0.388 OA
HETATM   94  H61 UNL     1      97.744 134.404  50.670  1.00  0.00     0.210 HD
ENDBRANCH  84  93
ENDBRANCH  83  84
BRANCH  83  95
HETATM   95  O13 UNL     1      96.780 135.841  53.426  1.00  0.00    -0.390 OA
HETATM   96  H62 UNL     1      96.725 134.849  53.387  1.00  0.00     0.210 HD
ENDBRANCH  83  95
ENDBRANCH  19  83
TORSDOF 23
ENDMDL
MODEL 2
REMARK minimizedAffinity -5.83375025
REMARK minimizedRMSD -1
REMARK  23 active torsions:
REMARK  status: ('A' for Active; 'I' for Inactive)
REMARK    1  A    between atoms: C2_2  and  C3_3 
REMARK    2  A    between atoms: C3_3  and  C4_4 
REMARK    3  A    between atoms: C4_4  and  C5_5 
REMARK    4  A    between atoms: C5_5  and  O1_6 
REMARK    5  A    between atoms: O1_6  and  C6_7 
REMARK    6  A    between atoms: C9_10  and  C12_13 
REMARK    7  A    between atoms: C15_16  and  C18_19 
REMARK    8  A    between atoms: C21_22  and  C24_25 
REMARK       I    between atoms: C24_25  and  N1_27 
REMARK    9  A    between atoms: N1_27  and  C25_28 
REMARK   10  A    between atoms: C27_30  and  O17_82 
REMARK   11  A    between atoms: C28_31  and  O16_81 
REMARK   12  A    between atoms: C31_36  and  O15_80 
REMARK   13  A    between atoms: C35_42  and  C56_76 
REMARK   14  A    between atoms: C37_46  and  C48_65 
REMARK   15  A    between atoms: C41_52  and  O10_64 
REMARK   16  A    between atoms: C44_57  and  C46_61 
REMARK   17  A    between atoms: C46_61  and  O9_63 
REMARK   18  A    between atoms: C48_65  and  C49_66 
REMARK   19  A    between atoms: C48_65  and  O13_75 
REMARK   20  A    between atoms: C49_66  and  C50_67 
REMARK   21  A    between atoms: C49_66  and  O12_74 
REMARK   22  A    between atoms: C53_70  and  O11_73 
REMARK   23  A    between atoms: C56_76  and  O14_78 
ROOT
HETATM    1  C25 UNL     1     100.071 138.377  62.171  1.00  0.00     0.179 C 
HETATM    2  C26 UNL     1     100.628 137.105  61.495  1.00  0.00     0.071 C 
HETATM    3  C27 UNL     1     100.982 137.285  59.992  1.00  0.00     0.169 C 
HETATM    4  C28 UNL     1      99.822 136.899  59.031  1.00  0.00     0.249 C 
HETATM    5  N2  UNL     1     100.238 137.029  57.627  1.00  0.00    -0.331 N 
HETATM    6  C29 UNL     1      99.473 136.480  56.539  1.00  0.00     0.245 C 
HETATM    7  O3  UNL     1      98.309 136.045  56.748  1.00  0.00    -0.271 OA
HETATM    8  C30 UNL     1     100.089 136.397  55.153  1.00  0.00     0.208 C 
HETATM    9  C31 UNL     1     101.483 135.711  55.173  1.00  0.00     0.155 C 
HETATM   10  C32 UNL     1     101.512 134.795  53.936  1.00  0.00     0.031 C 
HETATM   11  C33 UNL     1     100.042 134.489  53.652  1.00  0.00     0.134 C 
HETATM   12  N3  UNL     1      99.290 135.597  54.220  1.00  0.00    -0.334 N 
HETATM   13  C34 UNL     1      97.904 135.794  53.874  1.00  0.00     0.246 C 
HETATM   14  O4  UNL     1      97.150 134.784  53.829  1.00  0.00    -0.271 OA
HETATM   15  C35 UNL     1      97.336 137.127  53.418  1.00  0.00     0.205 C 
HETATM   16  N4  UNL     1      97.696 138.224  54.331  1.00  0.00    -0.344 N 
HETATM   17  C36 UNL     1      97.694 139.602  53.932  1.00  0.00     0.243 C 
HETATM   18  O5  UNL     1      98.752 140.102  53.465  1.00  0.00    -0.271 OA
HETATM   19  C37 UNL     1      96.476 140.493  54.084  1.00  0.00     0.208 C 
HETATM   20  N5  UNL     1      96.691 141.471  55.157  1.00  0.00    -0.344 N 
HETATM   21  C38 UNL     1      97.133 141.130  56.479  1.00  0.00     0.241 C 
HETATM   22  O6  UNL     1      96.829 140.016  56.985  1.00  0.00    -0.271 OA
HETATM   23  C39 UNL     1      98.042 142.075  57.225  1.00  0.00     0.181 C 
HETATM   24  C40 UNL     1      99.395 142.194  56.519  1.00  0.00     0.068 C 
HETATM   25  C41 UNL     1     100.331 141.229  57.254  1.00  0.00     0.138 C 
HETATM   26  C42 UNL     1      99.723 141.064  58.652  1.00  0.00     0.158 C 
HETATM   27  N6  UNL     1      98.356 141.545  58.546  1.00  0.00    -0.334 N 
HETATM   28  C43 UNL     1      97.471 141.692  59.668  1.00  0.00     0.246 C 
HETATM   29  O7  UNL     1      96.863 142.787  59.823  1.00  0.00    -0.271 OA
HETATM   30  C44 UNL     1      97.208 140.525  60.599  1.00  0.00     0.205 C 
HETATM   31  N7  UNL     1      98.440 140.121  61.285  1.00  0.00    -0.344 N 
HETATM   32  C45 UNL     1      98.715 138.759  61.642  1.00  0.00     0.241 C 
HETATM   33  O8  UNL     1      97.812 137.884  61.548  1.00  0.00    -0.271 OA
HETATM   34  C58 UNL     1     102.190 135.490  52.746  1.00  0.00     0.014 C 
HETATM   35  H30 UNL     1     101.162 137.461  57.407  1.00  0.00     0.165 HD
HETATM   36  H37 UNL     1      97.523 138.051  55.343  1.00  0.00     0.163 HD
HETATM   37  H39 UNL     1      96.719 142.479  54.887  1.00  0.00     0.163 HD
HETATM   38  H47 UNL     1      99.142 140.859  61.529  1.00  0.00     0.163 HD
ENDROOT
BRANCH   1  39
HETATM   39  N1  UNL     1      99.983 138.169  63.618  1.00  0.00    -0.344 N 
HETATM   40  C24 UNL     1     101.107 138.360  64.489  1.00  0.00     0.252 C 
HETATM   41  O2  UNL     1     102.111 139.005  64.077  1.00  0.00    -0.268 OA
HETATM   42  H24 UNL     1      99.046 137.979  64.039  1.00  0.00     0.163 HD
BRANCH  40  43
HETATM   43  C21 UNL     1     101.119 137.798  65.861  1.00  0.00     0.032 A 
HETATM   44  C20 UNL     1     101.667 136.526  66.097  1.00  0.00     0.018 A 
HETATM   45  C19 UNL     1     101.636 135.963  67.374  1.00  0.00     0.013 A 
HETATM   46  C18 UNL     1     101.052 136.657  68.448  1.00  0.00    -0.026 A 
HETATM   47  C23 UNL     1     100.515 137.935  68.217  1.00  0.00     0.013 A 
HETATM   48  C22 UNL     1     100.547 138.500  66.939  1.00  0.00     0.018 A 
BRANCH  46  49
HETATM   49  C15 UNL     1     100.978 136.037  69.796  1.00  0.00    -0.026 A 
HETATM   50  C14 UNL     1     100.473 136.764  70.889  1.00  0.00     0.013 A 
HETATM   51  C13 UNL     1     100.414 136.186  72.160  1.00  0.00     0.013 A 
HETATM   52  C12 UNL     1     100.857 134.869  72.368  1.00  0.00    -0.026 A 
HETATM   53  C17 UNL     1     101.359 134.141  71.275  1.00  0.00     0.013 A 
HETATM   54  C16 UNL     1     101.420 134.719  70.003  1.00  0.00     0.013 A 
BRANCH  52  55
HETATM   55  C9  UNL     1     100.800 134.257  73.721  1.00  0.00    -0.026 A 
HETATM   56  C8  UNL     1     101.417 133.020  73.974  1.00  0.00     0.015 A 
HETATM   57  C7  UNL     1     101.361 132.446  75.247  1.00  0.00     0.037 A 
HETATM   58  C6  UNL     1     100.687 133.102  76.294  1.00  0.00     0.068 A 
HETATM   59  C11 UNL     1     100.069 134.331  76.042  1.00  0.00     0.037 A 
HETATM   60  C10 UNL     1     100.123 134.906  74.769  1.00  0.00     0.015 A 
BRANCH  58  61
HETATM   61  O1  UNL     1     100.607 132.569  77.589  1.00  0.00    -0.351 OA
BRANCH  61  62
HETATM   62  C5  UNL     1      99.387 132.254  78.258  1.00  0.00     0.175 C 
BRANCH  62  63
HETATM   63  C4  UNL     1      98.696 131.069  77.576  1.00  0.00     0.027 C 
BRANCH  63  64
HETATM   64  C3  UNL     1      97.607 131.481  76.571  1.00  0.00     0.002 C 
BRANCH  64  65
HETATM   65  C2  UNL     1      97.860 130.930  75.160  1.00  0.00    -0.004 C 
HETATM   66  C1  UNL     1      97.764 132.040  74.117  1.00  0.00     0.005 C 
ENDBRANCH  64  65
ENDBRANCH  63  64
ENDBRANCH  62  63
ENDBRANCH  61  62
ENDBRANCH  58  61
ENDBRANCH  52  55
ENDBRANCH  46  49
ENDBRANCH  40  43
ENDBRANCH   1  39
BRANCH   3  67
HETATM   67  O17 UNL     1     102.148 136.562  59.676  1.00  0.00    -0.391 OA
HETATM   68  H73 UNL     1     101.995 135.613  59.923  1.00  0.00     0.210 HD
ENDBRANCH   3  67
BRANCH   4  69
HETATM   69  O16 UNL     1      99.370 135.591  59.292  1.00  0.00    -0.374 OA
HETATM   70  H72 UNL     1     100.058 134.964  58.946  1.00  0.00     0.212 HD
ENDBRANCH   4  69
BRANCH  30  71
HETATM   71  C46 UNL     1      96.062 140.789  61.615  1.00  0.00     0.146 C 
HETATM   72  C47 UNL     1      96.576 141.269  62.981  1.00  0.00     0.042 C 
BRANCH  71  73
HETATM   73  O9  UNL     1      95.305 139.619  61.776  1.00  0.00    -0.393 OA
HETATM   74  H52 UNL     1      94.451 139.880  62.211  1.00  0.00     0.210 HD
ENDBRANCH  71  73
ENDBRANCH  30  71
BRANCH   9  75
HETATM   75  O15 UNL     1     101.702 134.944  56.336  1.00  0.00    -0.393 OA
HETATM   76  H71 UNL     1     100.999 134.243  56.382  1.00  0.00     0.210 HD
ENDBRANCH   9  75
BRANCH  25  77
HETATM   77  O10 UNL     1     100.413 139.997  56.580  1.00  0.00    -0.394 OA
HETATM   78  H53 UNL     1      99.502 139.598  56.559  1.00  0.00     0.210 HD
ENDBRANCH  25  77
BRANCH  15  79
HETATM   79  C56 UNL     1      97.638 137.430  51.918  1.00  0.00     0.146 C 
HETATM   80  C57 UNL     1      99.125 137.349  51.541  1.00  0.00     0.042 C 
BRANCH  79  81
HETATM   81  O14 UNL     1      96.872 136.595  51.084  1.00  0.00    -0.393 OA
HETATM   82  H67 UNL     1      97.219 135.668  51.171  1.00  0.00     0.210 HD
ENDBRANCH  79  81
ENDBRANCH  15  79
BRANCH  19  83
HETATM   83  C48 UNL     1      95.120 139.723  54.196  1.00  0.00     0.183 C 
BRANCH  83  84
HETATM   84  C49 UNL     1      93.856 140.617  54.370  1.00  0.00     0.182 C 
BRANCH  84  85
HETATM   85  C50 UNL     1      93.067 140.289  55.624  1.00  0.00    -0.027 A 
HETATM   86  C51 UNL     1      93.417 140.921  56.831  1.00  0.00     0.012 A 
HETATM   87  C52 UNL     1      92.761 140.598  58.023  1.00  0.00     0.037 A 
HETATM   88  C53 UNL     1      91.739 139.641  58.023  1.00  0.00     0.065 A 
HETATM   89  C54 UNL     1      91.384 139.004  56.829  1.00  0.00     0.037 A 
HETATM   90  C55 UNL     1      92.045 139.320  55.636  1.00  0.00     0.012 A 
BRANCH  88  91
HETATM   91  O11 UNL     1      91.068 139.319  59.201  1.00  0.00    -0.361 OA
HETATM   92  H60 UNL     1      91.294 139.777  60.078  1.00  0.00     0.217 HD
ENDBRANCH  88  91
ENDBRANCH  84  85
BRANCH  84  93
HETATM   93  O12 UNL     1      93.041 140.670  53.223  1.00  0.00    -0.388 OA
HETATM   94  H61 UNL     1      92.881 139.750  52.901  1.00  0.00     0.210 HD
ENDBRANCH  84  93
ENDBRANCH  83  84
BRANCH  83  95
HETATM   95  O13 UNL     1      95.161 138.766  55.219  1.00  0.00    -0.390 OA
HETATM   96  H62 UNL     1      94.530 138.039  54.970  1.00  0.00     0.210 HD
ENDBRANCH  83  95
ENDBRANCH  19  83
TORSDOF 23
ENDMDL
MODEL 3
REMARK minimizedAffinity -5.41678429
REMARK minimizedRMSD -1
REMARK  23 active torsions:
REMARK  status: ('A' for Active; 'I' for Inactive)
REMARK    1  A    between atoms: C2_2  and  C3_3 
REMARK    2  A    between atoms: C3_3  and  C4_4 
REMARK    3  A    between atoms: C4_4  and  C5_5 
REMARK    4  A    between atoms: C5_5  and  O1_6 
REMARK    5  A    between atoms: O1_6  and  C6_7 
REMARK    6  A    between atoms: C9_10  and  C12_13 
REMARK    7  A    between atoms: C15_16  and  C18_19 
REMARK    8  A    between atoms: C21_22  and  C24_25 
REMARK       I    between atoms: C24_25  and  N1_27 
REMARK    9  A    between atoms: N1_27  and  C25_28 
REMARK   10  A    between atoms: C27_30  and  O17_82 
REMARK   11  A    between atoms: C28_31  and  O16_81 
REMARK   12  A    between atoms: C31_36  and  O15_80 
REMARK   13  A    between atoms: C35_42  and  C56_76 
REMARK   14  A    between atoms: C37_46  and  C48_65 
REMARK   15  A    between atoms: C41_52  and  O10_64 
REMARK   16  A    between atoms: C44_57  and  C46_61 
REMARK   17  A    between atoms: C46_61  and  O9_63 
REMARK   18  A    between atoms: C48_65  and  C49_66 
REMARK   19  A    between atoms: C48_65  and  O13_75 
REMARK   20  A    between atoms: C49_66  and  C50_67 
REMARK   21  A    between atoms: C49_66  and  O12_74 
REMARK   22  A    between atoms: C53_70  and  O11_73 
REMARK   23  A    between atoms: C56_76  and  O14_78 
ROOT
HETATM    1  C25 UNL     1      93.432 138.279  70.729  1.00  0.00     0.179 C 
HETATM    2  C26 UNL     1      92.775 137.002  71.298  1.00  0.00     0.071 C 
HETATM    3  C27 UNL     1      93.528 136.386  72.511  1.00  0.00     0.169 C 
HETATM    4  C28 UNL     1      94.557 135.291  72.111  1.00  0.00     0.249 C 
HETATM    5  N2  UNL     1      95.187 134.702  73.302  1.00  0.00    -0.331 N 
HETATM    6  C29 UNL     1      95.961 133.491  73.249  1.00  0.00     0.245 C 
HETATM    7  O3  UNL     1      96.295 133.009  72.133  1.00  0.00    -0.271 OA
HETATM    8  C30 UNL     1      96.344 132.785  74.538  1.00  0.00     0.208 C 
HETATM    9  C31 UNL     1      95.115 132.546  75.459  1.00  0.00     0.155 C 
HETATM   10  C32 UNL     1      95.294 131.128  76.032  1.00  0.00     0.031 C 
HETATM   11  C33 UNL     1      96.165 130.408  75.003  1.00  0.00     0.134 C 
HETATM   12  N3  UNL     1      96.909 131.452  74.313  1.00  0.00    -0.334 N 
HETATM   13  C34 UNL     1      98.047 131.119  73.492  1.00  0.00     0.246 C 
HETATM   14  O4  UNL     1      97.958 130.121  72.726  1.00  0.00    -0.271 OA
HETATM   15  C35 UNL     1      99.393 131.811  73.607  1.00  0.00     0.205 C 
HETATM   16  N4  UNL     1      99.267 133.278  73.567  1.00  0.00    -0.344 N 
HETATM   17  C36 UNL     1     100.268 134.160  74.094  1.00  0.00     0.243 C 
HETATM   18  O5  UNL     1     100.184 134.528  75.295  1.00  0.00    -0.271 OA
HETATM   19  C37 UNL     1     101.408 134.697  73.248  1.00  0.00     0.208 C 
HETATM   20  N5  UNL     1     101.210 136.126  72.976  1.00  0.00    -0.344 N 
HETATM   21  C38 UNL     1      99.996 136.684  72.453  1.00  0.00     0.241 C 
HETATM   22  O6  UNL     1      99.265 136.006  71.681  1.00  0.00    -0.271 OA
HETATM   23  C39 UNL     1      99.553 138.053  72.906  1.00  0.00     0.181 C 
HETATM   24  C40 UNL     1      99.216 138.046  74.399  1.00  0.00     0.068 C 
HETATM   25  C41 UNL     1      97.694 137.883  74.477  1.00  0.00     0.138 C 
HETATM   26  C42 UNL     1      97.164 138.399  73.135  1.00  0.00     0.158 C 
HETATM   27  N6  UNL     1      98.310 138.431  72.245  1.00  0.00    -0.334 N 
HETATM   28  C43 UNL     1      98.278 138.985  70.919  1.00  0.00     0.246 C 
HETATM   29  O7  UNL     1      99.165 139.818  70.585  1.00  0.00    -0.271 OA
HETATM   30  C44 UNL     1      97.248 138.511  69.912  1.00  0.00     0.205 C 
HETATM   31  N7  UNL     1      95.891 138.834  70.368  1.00  0.00    -0.344 N 
HETATM   32  C45 UNL     1      94.760 137.999  70.080  1.00  0.00     0.241 C 
HETATM   33  O8  UNL     1      94.865 137.051  69.255  1.00  0.00    -0.271 OA
HETATM   34  C58 UNL     1      95.961 131.169  77.414  1.00  0.00     0.014 C 
HETATM   35  H30 UNL     1      95.002 135.125  74.238  1.00  0.00     0.165 HD
HETATM   36  H37 UNL     1      98.693 133.665  72.790  1.00  0.00     0.163 HD
HETATM   37  H39 UNL     1     101.912 136.790  73.371  1.00  0.00     0.163 HD
HETATM   38  H47 UNL     1      95.744 139.713  70.917  1.00  0.00     0.163 HD
ENDROOT
BRANCH   1  39
HETATM   39  N1  UNL     1      92.537 138.900  69.750  1.00  0.00    -0.344 N 
HETATM   40  C24 UNL     1      91.258 139.437  70.113  1.00  0.00     0.252 C 
HETATM   41  O2  UNL     1      91.001 139.666  71.328  1.00  0.00    -0.268 OA
HETATM   42  H24 UNL     1      92.889 139.050  68.778  1.00  0.00     0.163 HD
BRANCH  40  43
HETATM   43  C21 UNL     1      90.222 139.713  69.089  1.00  0.00     0.032 A 
HETATM   44  C20 UNL     1      88.892 139.315  69.306  1.00  0.00     0.018 A 
HETATM   45  C19 UNL     1      87.918 139.521  68.327  1.00  0.00     0.013 A 
HETATM   46  C18 UNL     1      88.251 140.127  67.103  1.00  0.00    -0.026 A 
HETATM   47  C23 UNL     1      89.577 140.538  66.889  1.00  0.00     0.013 A 
HETATM   48  C22 UNL     1      90.553 140.333  67.869  1.00  0.00     0.018 A 
BRANCH  46  49
HETATM   49  C15 UNL     1      87.224 140.302  66.044  1.00  0.00    -0.026 A 
HETATM   50  C14 UNL     1      85.899 140.630  66.383  1.00  0.00     0.013 A 
HETATM   51  C13 UNL     1      84.929 140.784  65.389  1.00  0.00     0.013 A 
HETATM   52  C12 UNL     1      85.260 140.612  64.034  1.00  0.00    -0.026 A 
HETATM   53  C17 UNL     1      86.584 140.286  63.696  1.00  0.00     0.013 A 
HETATM   54  C16 UNL     1      87.556 140.132  64.690  1.00  0.00     0.013 A 
BRANCH  52  55
HETATM   55  C9  UNL     1      84.225 140.768  62.979  1.00  0.00    -0.026 A 
HETATM   56  C8  UNL     1      82.859 140.675  63.297  1.00  0.00     0.015 A 
HETATM   57  C7  UNL     1      81.887 140.821  62.302  1.00  0.00     0.037 A 
HETATM   58  C6  UNL     1      82.265 141.066  60.969  1.00  0.00     0.068 A 
HETATM   59  C11 UNL     1      83.624 141.153  60.651  1.00  0.00     0.037 A 
HETATM   60  C10 UNL     1      84.598 141.007  61.644  1.00  0.00     0.015 A 
BRANCH  58  61
HETATM   61  O1  UNL     1      81.329 141.224  59.937  1.00  0.00    -0.351 OA
BRANCH  61  62
HETATM   62  C5  UNL     1      80.284 140.296  59.647  1.00  0.00     0.175 C 
BRANCH  62  63
HETATM   63  C4  UNL     1      80.839 139.091  58.882  1.00  0.00     0.027 C 
BRANCH  63  64
HETATM   64  C3  UNL     1      81.158 137.881  59.776  1.00  0.00     0.002 C 
BRANCH  64  65
HETATM   65  C2  UNL     1      82.663 137.596  59.878  1.00  0.00    -0.004 C 
HETATM   66  C1  UNL     1      83.084 137.404  61.333  1.00  0.00     0.005 C 
ENDBRANCH  64  65
ENDBRANCH  63  64
ENDBRANCH  62  63
ENDBRANCH  61  62
ENDBRANCH  58  61
ENDBRANCH  52  55
ENDBRANCH  46  49
ENDBRANCH  40  43
ENDBRANCH   1  39
BRANCH   3  67
HETATM   67  O17 UNL     1      92.607 135.881  73.449  1.00  0.00    -0.391 OA
HETATM   68  H73 UNL     1      92.026 135.224  72.984  1.00  0.00     0.210 HD
ENDBRANCH   3  67
BRANCH   4  69
HETATM   69  O16 UNL     1      93.945 134.290  71.331  1.00  0.00    -0.374 OA
HETATM   70  H72 UNL     1      93.382 133.742  71.939  1.00  0.00     0.212 HD
ENDBRANCH   4  69
BRANCH  30  71
HETATM   71  C46 UNL     1      97.497 139.041  68.473  1.00  0.00     0.146 C 
HETATM   72  C47 UNL     1      96.851 140.413  68.224  1.00  0.00     0.042 C 
BRANCH  71  73
HETATM   73  O9  UNL     1      97.010 138.111  67.543  1.00  0.00    -0.393 OA
HETATM   74  H52 UNL     1      97.407 138.342  66.662  1.00  0.00     0.210 HD
ENDBRANCH  71  73
ENDBRANCH  30  71
BRANCH   9  75
HETATM   75  O15 UNL     1      93.886 132.626  74.769  1.00  0.00    -0.393 OA
HETATM   76  H71 UNL     1      93.889 131.938  74.052  1.00  0.00     0.210 HD
ENDBRANCH   9  75
BRANCH  25  77
HETATM   77  O10 UNL     1      97.343 136.537  74.687  1.00  0.00    -0.394 OA
HETATM   78  H53 UNL     1      97.677 136.010  73.913  1.00  0.00     0.210 HD
ENDBRANCH  25  77
BRANCH  15  79
HETATM   79  C56 UNL     1     100.243 131.283  74.803  1.00  0.00     0.146 C 
HETATM   80  C57 UNL     1      99.531 131.341  76.162  1.00  0.00     0.042 C 
BRANCH  79  81
HETATM   81  O14 UNL     1     100.703 129.980  74.542  1.00  0.00    -0.393 OA
HETATM   82  H67 UNL     1      99.922 129.365  74.570  1.00  0.00     0.210 HD
ENDBRANCH  79  81
ENDBRANCH  15  79
BRANCH  19  83
HETATM   83  C48 UNL     1     101.724 133.850  71.973  1.00  0.00     0.183 C 
BRANCH  83  84
HETATM   84  C49 UNL     1     102.988 134.290  71.175  1.00  0.00     0.182 C 
BRANCH  84  85
HETATM   85  C50 UNL     1     103.995 133.170  70.998  1.00  0.00    -0.027 A 
HETATM   86  C51 UNL     1     103.591 131.990  70.346  1.00  0.00     0.012 A 
HETATM   87  C52 UNL     1     104.466 130.907  70.221  1.00  0.00     0.037 A 
HETATM   88  C53 UNL     1     105.764 130.991  70.742  1.00  0.00     0.065 A 
HETATM   89  C54 UNL     1     106.176 132.158  71.394  1.00  0.00     0.037 A 
HETATM   90  C55 UNL     1     105.299 133.241  71.528  1.00  0.00     0.012 A 
BRANCH  88  91
HETATM   91  O11 UNL     1     106.650 129.924  70.612  1.00  0.00    -0.361 OA
HETATM   92  H60 UNL     1     106.383 129.072  70.130  1.00  0.00     0.217 HD
ENDBRANCH  88  91
ENDBRANCH  84  85
BRANCH  84  93
HETATM   93  O12 UNL     1     103.580 135.470  71.664  1.00  0.00    -0.388 OA
HETATM   94  H61 UNL     1     103.690 135.393  72.643  1.00  0.00     0.210 HD
ENDBRANCH  84  93
ENDBRANCH  83  84
BRANCH  83  95
HETATM   95  O13 UNL     1     100.620 133.797  71.111  1.00  0.00    -0.390 OA
HETATM   96  H62 UNL     1     100.680 132.944  70.604  1.00  0.00     0.210 HD
ENDBRANCH  83  95
ENDBRANCH  19  83
TORSDOF 23
ENDMDL
