MODEL 1
REMARK VINA RESULT:     0.000      0.000      0.000
REMARK INTER + INTRA:          -2.945
REMARK INTER:                   0.000
REMARK INTRA:                  -2.945
REMARK UNBOUND:                -2.945
REMARK  Name = 
REMARK  22 active torsions:
REMARK  status: ('A' for Active; 'I' for Inactive)
REMARK    1  A    between atoms: C_1  and  C_2
REMARK    2  A    between atoms: C_2  and  C_3
REMARK    3  A    between atoms: C_2  and  C_6
REMARK    4  A    between atoms: C_3  and  C_4
REMARK    5  A    between atoms: C_3  and  C_5
REMARK    6  A    between atoms: C_6  and  C_50
REMARK    7  A    between atoms: C_9  and  C_49
REMARK    8  A    between atoms: C_14  and  C_48
REMARK    9  A    between atoms: C_17  and  O_47
REMARK   10  A    between atoms: C_22  and  C_27
REMARK   11  A    between atoms: C_23  and  C_24
REMARK   12  A    between atoms: C_24  and  O_26
REMARK   13  A    between atoms: C_29  and  O_43
REMARK   14  A    between atoms: C_30  and  O_31
REMARK   15  A    between atoms: O_31  and  C_32
REMARK   16  A    between atoms: C_33  and  O_42
REMARK   17  A    between atoms: C_34  and  O_41
REMARK   18  A    between atoms: C_35  and  O_40
REMARK   19  A    between atoms: C_36  and  C_38
REMARK   20  A    between atoms: C_38  and  O_39
REMARK   21  A    between atoms: O_43  and  C_44
REMARK   22  A    between atoms: C_44  and  C_46
REMARK                            x       y       z     vdW  Elec       q    Type
REMARK                         _______ _______ _______ _____ _____    ______ ____
ROOT
ATOM      1  C   UNL     1       2.051  -4.627  -5.848  0.00  0.00    -0.016 C 
ATOM      2  C   UNL     1       1.955  -3.154  -6.380  0.00  0.00    +0.008 C 
ATOM      3  C   UNL     1       1.686  -2.005  -5.443  0.00  0.00    +0.008 C 
ATOM      4  C   UNL     1       2.233  -2.166  -4.015  0.00  0.00    -0.019 C 
ATOM      5  C   UNL     1       3.032  -0.905  -3.586  0.00  0.00    +0.022 C 
ATOM      6  C   UNL     1       2.466   0.464  -3.979  0.00  0.00    +0.009 C 
ATOM      7  C   UNL     1       3.480   1.483  -3.525  0.00  0.00    +0.006 C 
ATOM      8  C   UNL     1       3.635   1.487  -2.003  0.00  0.00    +0.015 C 
ATOM      9  C   UNL     1       3.009   2.688  -1.290  0.00  0.00    +0.025 C 
ATOM     10  C   UNL     1       1.492   2.508  -1.138  0.00  0.00    +0.172 C 
ATOM     11  O   UNL     1       1.231   1.445  -0.242  0.00  0.00    -0.350 OA
ATOM     12  C   UNL     1       1.669   0.212  -0.773  0.00  0.00    +0.257 C 
ATOM     13  C   UNL     1       3.180   0.195  -1.240  0.00  0.00    +0.050 C 
ATOM     14  C   UNL     1       3.393  -1.024  -2.113  0.00  0.00    -0.059 C 
ATOM     15  C   UNL     1       3.692  -2.228  -1.586  0.00  0.00    -0.026 C 
ATOM     16  C   UNL     1       3.622  -3.512  -2.336  0.00  0.00    +0.035 C 
ATOM     17  C   UNL     1       3.263  -3.391  -3.854  0.00  0.00    -0.009 C 
ATOM     18  C   UNL     1       2.637  -4.740  -4.377  0.00  0.00    +0.110 C 
ATOM     19  C   UNL     1       4.622  -3.158  -4.593  0.00  0.00    +0.013 C 
ATOM     20  C   UNL     1       4.095   0.147  -0.007  0.00  0.00    +0.063 C 
ATOM     21  C   UNL     1       4.005   1.401   0.836  0.00  0.00    +0.207 C 
ATOM     22  C   UNL     1       3.721   2.744   0.085  0.00  0.00    +0.170 C 
ATOM     23  C   UNL     1       3.244   4.019  -2.038  0.00  0.00    +0.016 C 
ATOM     24  C   UNL     1       0.965  -2.258  -3.098  0.00  0.00    +0.012 C 
ATOM     25  C   UNL     1       2.998  -5.258  -6.932  0.00  0.00    +0.012 C 
ENDROOT
BRANCH   1  27
ATOM     26  C   UNL     1      -0.352  -4.702  -7.015  0.00  0.00    +0.008 C 
ATOM     27  C   UNL     1       0.576  -5.287  -5.932  0.00  0.00    -0.005 C 
BRANCH  27  28
ATOM     28  C   UNL     1      -0.243  -5.419  -4.601  0.00  0.00    -0.014 C 
ATOM     29  C   UNL     1      -1.568  -4.641  -4.507  0.00  0.00    +0.007 C 
ATOM     30  C   UNL     1      -0.584  -6.894  -4.327  0.00  0.00    +0.007 C 
ENDBRANCH  27  28
ENDBRANCH   1  27
BRANCH  18  31
ATOM     31  C   UNL     1       3.548  -5.971  -3.985  0.00  0.00    +0.309 C 
ATOM     32  O   UNL     1       4.729  -6.091  -4.311  0.00  0.00    -0.251 OA
BRANCH  31  33
ATOM     33  O   UNL     1       3.042  -6.906  -3.169  0.00  0.00    -0.480 OA
ATOM     34  H   UNL     1       3.538  -7.104  -2.370  0.00  0.00    +0.295 HD
ENDBRANCH  31  33
ENDBRANCH  18  31
BRANCH  12  35
ATOM     35  O   UNL     1       1.435  -0.725   0.268  0.00  0.00    -0.366 OA
ATOM     36  H   UNL     1       2.233  -0.642   0.824  0.00  0.00    +0.213 HD
ENDBRANCH  12  35
BRANCH  22  37
ATOM     37  O   UNL     1       2.946   3.635   0.884  0.00  0.00    -0.341 OA
BRANCH  37  38
ATOM     38  C   UNL     1       2.817   3.279   2.245  0.00  0.00    +0.282 C 
ATOM     39  C   UNL     1       3.541   4.305   3.126  0.00  0.00    +0.201 C 
ATOM     40  C   UNL     1       2.801   4.482   4.455  0.00  0.00    +0.179 C 
ATOM     41  C   UNL     1       2.079   3.183   4.890  0.00  0.00    +0.177 C 
ATOM     42  C   UNL     1       1.243   2.534   3.763  0.00  0.00    +0.178 C 
ATOM     43  O   UNL     1       1.428   3.230   2.522  0.00  0.00    -0.341 OA
BRANCH  41  44
ATOM     44  O   UNL     1       3.070   2.201   5.267  0.00  0.00    -0.386 OA
ATOM     45  H   UNL     1       3.525   2.510   6.073  0.00  0.00    +0.210 HD
ENDBRANCH  41  44
BRANCH  40  46
ATOM     46  O   UNL     1       1.891   5.580   4.384  0.00  0.00    -0.386 OA
ATOM     47  H   UNL     1       2.164   6.124   3.621  0.00  0.00    +0.210 HD
ENDBRANCH  40  46
BRANCH  39  48
ATOM     48  O   UNL     1       4.906   3.919   3.434  0.00  0.00    -0.384 OA
ATOM     49  H   UNL     1       4.923   2.982   3.665  0.00  0.00    +0.210 HD
ENDBRANCH  39  48
BRANCH  42  50
ATOM     50  C   UNL     1      -0.260   2.489   4.028  0.00  0.00    +0.190 C 
BRANCH  50  51
ATOM     51  O   UNL     1      -0.732   3.820   4.277  0.00  0.00    -0.392 OA
ATOM     52  H   UNL     1      -1.631   3.712   4.651  0.00  0.00    +0.210 HD
ENDBRANCH  50  51
ENDBRANCH  42  50
ENDBRANCH  37  38
ENDBRANCH  22  37
BRANCH  21  53
ATOM     53  O   UNL     1       5.332   1.565   1.442  0.00  0.00    -0.459 OA
BRANCH  53  54
ATOM     54  C   UNL     1       5.614   0.844   2.558  0.00  0.00    +0.304 C 
ATOM     55  O   UNL     1       4.918   0.795   3.564  0.00  0.00    -0.251 OA
ATOM     56  C   UNL     1       6.877   0.054   2.365  0.00  0.00    +0.136 C 
ENDBRANCH  53  54
ENDBRANCH  21  53
TORSDOF 14
ENDMDL
MODEL 2
REMARK VINA RESULT:     0.001      4.822     11.798
REMARK INTER + INTRA:          -2.943
REMARK INTER:                   0.000
REMARK INTRA:                  -2.943
REMARK UNBOUND:                -2.945
REMARK  Name = 
REMARK  22 active torsions:
REMARK  status: ('A' for Active; 'I' for Inactive)
REMARK    1  A    between atoms: C_1  and  C_2
REMARK    2  A    between atoms: C_2  and  C_3
REMARK    3  A    between atoms: C_2  and  C_6
REMARK    4  A    between atoms: C_3  and  C_4
REMARK    5  A    between atoms: C_3  and  C_5
REMARK    6  A    between atoms: C_6  and  C_50
REMARK    7  A    between atoms: C_9  and  C_49
REMARK    8  A    between atoms: C_14  and  C_48
REMARK    9  A    between atoms: C_17  and  O_47
REMARK   10  A    between atoms: C_22  and  C_27
REMARK   11  A    between atoms: C_23  and  C_24
REMARK   12  A    between atoms: C_24  and  O_26
REMARK   13  A    between atoms: C_29  and  O_43
REMARK   14  A    between atoms: C_30  and  O_31
REMARK   15  A    between atoms: O_31  and  C_32
REMARK   16  A    between atoms: C_33  and  O_42
REMARK   17  A    between atoms: C_34  and  O_41
REMARK   18  A    between atoms: C_35  and  O_40
REMARK   19  A    between atoms: C_36  and  C_38
REMARK   20  A    between atoms: C_38  and  O_39
REMARK   21  A    between atoms: O_43  and  C_44
REMARK   22  A    between atoms: C_44  and  C_46
REMARK                            x       y       z     vdW  Elec       q    Type
REMARK                         _______ _______ _______ _____ _____    ______ ____
ROOT
ATOM      1  C   UNL     1      -0.219   4.156   8.955  0.00  0.00    -0.016 C 
ATOM      2  C   UNL     1      -1.259   3.030   9.291  0.00  0.00    +0.008 C 
ATOM      3  C   UNL     1      -1.646   1.997   8.263  0.00  0.00    +0.008 C 
ATOM      4  C   UNL     1      -0.550   1.617   7.255  0.00  0.00    -0.019 C 
ATOM      5  C   UNL     1      -0.403   0.073   7.157  0.00  0.00    +0.022 C 
ATOM      6  C   UNL     1      -1.685  -0.765   7.162  0.00  0.00    +0.009 C 
ATOM      7  C   UNL     1      -1.243  -2.206   7.156  0.00  0.00    +0.006 C 
ATOM      8  C   UNL     1      -0.486  -2.561   5.875  0.00  0.00    +0.015 C 
ATOM      9  C   UNL     1      -1.262  -3.428   4.880  0.00  0.00    +0.025 C 
ATOM     10  C   UNL     1      -2.251  -2.580   4.066  0.00  0.00    +0.172 C 
ATOM     11  O   UNL     1      -1.532  -1.704   3.219  0.00  0.00    -0.350 OA
ATOM     12  C   UNL     1      -0.805  -0.754   3.968  0.00  0.00    +0.257 C 
ATOM     13  C   UNL     1       0.145  -1.371   5.072  0.00  0.00    +0.050 C 
ATOM     14  C   UNL     1       0.552  -0.263   6.021  0.00  0.00    -0.059 C 
ATOM     15  C   UNL     1       1.606   0.536   5.766  0.00  0.00    -0.026 C 
ATOM     16  C   UNL     1       1.885   1.811   6.482  0.00  0.00    +0.035 C 
ATOM     17  C   UNL     1       0.912   2.153   7.658  0.00  0.00    -0.009 C 
ATOM     18  C   UNL     1       0.901   3.708   7.923  0.00  0.00    +0.110 C 
ATOM     19  C   UNL     1       1.506   1.442   8.919  0.00  0.00    +0.013 C 
ATOM     20  C   UNL     1       1.379  -1.988   4.397  0.00  0.00    +0.063 C 
ATOM     21  C   UNL     1       1.035  -3.179   3.528  0.00  0.00    +0.207 C 
ATOM     22  C   UNL     1      -0.174  -4.064   3.980  0.00  0.00    +0.170 C 
ATOM     23  C   UNL     1      -2.073  -4.549   5.568  0.00  0.00    +0.016 C 
ATOM     24  C   UNL     1      -1.071   2.131   5.869  0.00  0.00    +0.012 C 
ATOM     25  C   UNL     1       0.355   4.447  10.389  0.00  0.00    +0.012 C 
ENDROOT
BRANCH   1  27
ATOM     26  C   UNL     1      -2.484   5.574   8.903  0.00  0.00    +0.008 C 
ATOM     27  C   UNL     1      -1.033   5.440   8.400  0.00  0.00    -0.005 C 
BRANCH  27  28
ATOM     28  C   UNL     1      -1.022   5.701   6.854  0.00  0.00    -0.014 C 
ATOM     29  C   UNL     1      -2.373   5.642   6.117  0.00  0.00    +0.007 C 
ATOM     30  C   UNL     1      -0.419   7.082   6.549  0.00  0.00    +0.007 C 
ENDBRANCH  27  28
ENDBRANCH   1  27
BRANCH  18  31
ATOM     31  C   UNL     1       2.372   4.264   8.068  0.00  0.00    +0.309 C 
ATOM     32  O   UNL     1       3.185   3.865   8.903  0.00  0.00    -0.251 OA
BRANCH  31  33
ATOM     33  O   UNL     1       2.807   5.161   7.172  0.00  0.00    -0.480 OA
ATOM     34  H   UNL     1       3.001   4.837   6.289  0.00  0.00    +0.295 HD
ENDBRANCH  31  33
ENDBRANCH  18  31
BRANCH  12  35
ATOM     35  O   UNL     1      -0.069  -0.025   2.996  0.00  0.00    -0.366 OA
ATOM     36  H   UNL     1      -0.480   0.860   3.027  0.00  0.00    +0.213 HD
ENDBRANCH  12  35
BRANCH  22  37
ATOM     37  O   UNL     1      -0.869  -4.609   2.861  0.00  0.00    -0.341 OA
BRANCH  37  38
ATOM     38  C   UNL     1      -0.213  -4.489   1.616  0.00  0.00    +0.282 C 
ATOM     39  C   UNL     1       0.187  -5.876   1.099  0.00  0.00    +0.201 C 
ATOM     40  C   UNL     1       0.102  -5.919  -0.430  0.00  0.00    +0.179 C 
ATOM     41  C   UNL     1       0.397  -4.537  -1.062  0.00  0.00    +0.177 C 
ATOM     42  C   UNL     1      -0.382  -3.376  -0.402  0.00  0.00    +0.178 C 
ATOM     43  O   UNL     1      -1.117  -3.837   0.741  0.00  0.00    -0.341 OA
BRANCH  41  44
ATOM     44  O   UNL     1       1.798  -4.230  -0.884  0.00  0.00    -0.386 OA
ATOM     45  H   UNL     1       2.084  -3.644  -1.610  0.00  0.00    +0.210 HD
ENDBRANCH  41  44
BRANCH  40  46
ATOM     46  O   UNL     1      -1.168  -6.420  -0.851  0.00  0.00    -0.386 OA
ATOM     47  H   UNL     1      -1.329  -7.239  -0.346  0.00  0.00    +0.210 HD
ENDBRANCH  40  46
BRANCH  39  48
ATOM     48  O   UNL     1       1.541  -6.248   1.471  0.00  0.00    -0.384 OA
ATOM     49  H   UNL     1       2.158  -5.615   1.083  0.00  0.00    +0.210 HD
ENDBRANCH  39  48
BRANCH  42  50
ATOM     50  C   UNL     1      -1.379  -2.672  -1.318  0.00  0.00    +0.190 C 
BRANCH  50  51
ATOM     51  O   UNL     1      -2.301  -3.639  -1.838  0.00  0.00    -0.392 OA
ATOM     52  H   UNL     1      -3.171  -3.191  -1.848  0.00  0.00    +0.210 HD
ENDBRANCH  50  51
ENDBRANCH  42  50
ENDBRANCH  37  38
ENDBRANCH  22  37
BRANCH  21  53
ATOM     53  O   UNL     1       2.208  -4.061   3.583  0.00  0.00    -0.459 OA
BRANCH  53  54
ATOM     54  C   UNL     1       3.255  -3.776   2.766  0.00  0.00    +0.304 C 
ATOM     55  O   UNL     1       3.180  -3.588   1.559  0.00  0.00    -0.251 OA
ATOM     56  C   UNL     1       4.523  -3.660   3.563  0.00  0.00    +0.136 C 
ENDBRANCH  53  54
ENDBRANCH  21  53
TORSDOF 14
ENDMDL
MODEL 3
REMARK VINA RESULT:     0.002      7.464     10.195
REMARK INTER + INTRA:          -2.942
REMARK INTER:                   0.000
REMARK INTRA:                  -2.942
REMARK UNBOUND:                -2.945
REMARK  Name = 
REMARK  22 active torsions:
REMARK  status: ('A' for Active; 'I' for Inactive)
REMARK    1  A    between atoms: C_1  and  C_2
REMARK    2  A    between atoms: C_2  and  C_3
REMARK    3  A    between atoms: C_2  and  C_6
REMARK    4  A    between atoms: C_3  and  C_4
REMARK    5  A    between atoms: C_3  and  C_5
REMARK    6  A    between atoms: C_6  and  C_50
REMARK    7  A    between atoms: C_9  and  C_49
REMARK    8  A    between atoms: C_14  and  C_48
REMARK    9  A    between atoms: C_17  and  O_47
REMARK   10  A    between atoms: C_22  and  C_27
REMARK   11  A    between atoms: C_23  and  C_24
REMARK   12  A    between atoms: C_24  and  O_26
REMARK   13  A    between atoms: C_29  and  O_43
REMARK   14  A    between atoms: C_30  and  O_31
REMARK   15  A    between atoms: O_31  and  C_32
REMARK   16  A    between atoms: C_33  and  O_42
REMARK   17  A    between atoms: C_34  and  O_41
REMARK   18  A    between atoms: C_35  and  O_40
REMARK   19  A    between atoms: C_36  and  C_38
REMARK   20  A    between atoms: C_38  and  O_39
REMARK   21  A    between atoms: O_43  and  C_44
REMARK   22  A    between atoms: C_44  and  C_46
REMARK                            x       y       z     vdW  Elec       q    Type
REMARK                         _______ _______ _______ _____ _____    ______ ____
ROOT
ATOM      1  C   UNL     1       3.830  -9.546   4.759  0.00  0.00    -0.016 C 
ATOM      2  C   UNL     1       2.857  -9.800   5.963  0.00  0.00    +0.008 C 
ATOM      3  C   UNL     1       2.292  -8.654   6.762  0.00  0.00    +0.008 C 
ATOM      4  C   UNL     1       2.067  -7.347   5.985  0.00  0.00    -0.019 C 
ATOM      5  C   UNL     1       0.636  -6.798   6.234  0.00  0.00    +0.022 C 
ATOM      6  C   UNL     1       0.079  -6.881   7.659  0.00  0.00    +0.009 C 
ATOM      7  C   UNL     1      -1.339  -6.374   7.585  0.00  0.00    +0.006 C 
ATOM      8  C   UNL     1      -1.393  -4.902   7.173  0.00  0.00    +0.015 C 
ATOM      9  C   UNL     1      -1.745  -3.925   8.298  0.00  0.00    +0.025 C 
ATOM     10  C   UNL     1      -0.522  -3.637   9.181  0.00  0.00    +0.172 C 
ATOM     11  O   UNL     1       0.439  -2.916   8.433  0.00  0.00    -0.350 OA
ATOM     12  C   UNL     1       0.956  -3.698   7.378  0.00  0.00    +0.257 C 
ATOM     13  C   UNL     1      -0.139  -4.328   6.426  0.00  0.00    +0.050 C 
ATOM     14  C   UNL     1       0.517  -5.417   5.604  0.00  0.00    -0.059 C 
ATOM     15  C   UNL     1       1.158  -5.145   4.450  0.00  0.00    -0.026 C 
ATOM     16  C   UNL     1       2.067  -6.094   3.751  0.00  0.00    +0.035 C 
ATOM     17  C   UNL     1       2.181  -7.517   4.390  0.00  0.00    -0.009 C 
ATOM     18  C   UNL     1       3.545  -8.193   3.979  0.00  0.00    +0.110 C 
ATOM     19  C   UNL     1       1.012  -8.353   3.772  0.00  0.00    +0.013 C 
ATOM     20  C   UNL     1      -0.715  -3.233   5.515  0.00  0.00    +0.063 C 
ATOM     21  C   UNL     1      -1.485  -2.181   6.284  0.00  0.00    +0.207 C 
ATOM     22  C   UNL     1      -2.241  -2.650   7.571  0.00  0.00    +0.170 C 
ATOM     23  C   UNL     1      -2.866  -4.453   9.221  0.00  0.00    +0.016 C 
ATOM     24  C   UNL     1       3.081  -6.323   6.603  0.00  0.00    +0.012 C 
ATOM     25  C   UNL     1       3.542 -10.823   3.888  0.00  0.00    +0.012 C 
ENDROOT
BRANCH   1  27
ATOM     26  C   UNL     1       5.565 -10.431   6.589  0.00  0.00    +0.008 C 
ATOM     27  C   UNL     1       5.346  -9.577   5.324  0.00  0.00    -0.005 C 
BRANCH  27  28
ATOM     28  C   UNL     1       6.081  -8.206   5.522  0.00  0.00    -0.014 C 
ATOM     29  C   UNL     1       6.499  -7.829   6.955  0.00  0.00    +0.007 C 
ATOM     30  C   UNL     1       7.359  -8.157   4.668  0.00  0.00    +0.007 C 
ENDBRANCH  27  28
ENDBRANCH   1  27
BRANCH  18  31
ATOM     31  C   UNL     1       3.759  -8.125   2.415  0.00  0.00    +0.309 C 
ATOM     32  O   UNL     1       2.978  -8.598   1.589  0.00  0.00    -0.251 OA
BRANCH  31  33
ATOM     33  O   UNL     1       4.803  -7.431   1.942  0.00  0.00    -0.480 OA
ATOM     34  H   UNL     1       5.577  -7.366   2.508  0.00  0.00    +0.295 HD
ENDBRANCH  31  33
ENDBRANCH  18  31
BRANCH  12  35
ATOM     35  O   UNL     1       1.816  -2.816   6.672  0.00  0.00    -0.366 OA
ATOM     36  H   UNL     1       1.211  -2.371   6.049  0.00  0.00    +0.213 HD
ENDBRANCH  12  35
BRANCH  22  37
ATOM     37  O   UNL     1      -2.269  -1.627   8.563  0.00  0.00    -0.341 OA
BRANCH  37  38
ATOM     38  C   UNL     1      -1.874  -0.342   8.127  0.00  0.00    +0.282 C 
ATOM     39  C   UNL     1      -3.071   0.615   8.170  0.00  0.00    +0.201 C 
ATOM     40  C   UNL     1      -2.608   2.030   8.531  0.00  0.00    +0.179 C 
ATOM     41  C   UNL     1      -1.170   2.311   8.028  0.00  0.00    +0.177 C 
ATOM     42  C   UNL     1      -0.164   1.191   8.377  0.00  0.00    +0.178 C 
ATOM     43  O   UNL     1      -0.830   0.076   8.988  0.00  0.00    -0.341 OA
BRANCH  41  44
ATOM     44  O   UNL     1      -1.187   2.398   6.586  0.00  0.00    -0.386 OA
ATOM     45  H   UNL     1      -0.852   3.276   6.323  0.00  0.00    +0.210 HD
ENDBRANCH  41  44
BRANCH  40  46
ATOM     46  O   UNL     1      -2.717   2.253   9.937  0.00  0.00    -0.386 OA
ATOM     47  H   UNL     1      -2.299   3.116  10.119  0.00  0.00    +0.210 HD
ENDBRANCH  40  46
BRANCH  39  48
ATOM     48  O   UNL     1      -3.773   0.697   6.901  0.00  0.00    -0.384 OA
ATOM     49  H   UNL     1      -4.709   0.511   7.048  0.00  0.00    +0.210 HD
ENDBRANCH  39  48
BRANCH  42  50
ATOM     50  C   UNL     1       0.959   1.610   9.321  0.00  0.00    +0.190 C 
BRANCH  50  51
ATOM     51  O   UNL     1       0.386   2.137  10.526  0.00  0.00    -0.392 OA
ATOM     52  H   UNL     1       0.784   1.616  11.254  0.00  0.00    +0.210 HD
ENDBRANCH  50  51
ENDBRANCH  42  50
ENDBRANCH  37  38
ENDBRANCH  22  37
BRANCH  21  53
ATOM     53  O   UNL     1      -2.530  -1.708   5.367  0.00  0.00    -0.459 OA
BRANCH  53  54
ATOM     54  C   UNL     1      -2.188  -0.773   4.443  0.00  0.00    +0.304 C 
ATOM     55  O   UNL     1      -1.614   0.281   4.681  0.00  0.00    -0.251 OA
ATOM     56  C   UNL     1      -2.556  -1.242   3.064  0.00  0.00    +0.136 C 
ENDBRANCH  53  54
ENDBRANCH  21  53
TORSDOF 14
ENDMDL
MODEL 4
REMARK VINA RESULT:     0.002      4.197      6.830
REMARK INTER + INTRA:          -2.942
REMARK INTER:                   0.000
REMARK INTRA:                  -2.942
REMARK UNBOUND:                -2.945
REMARK  Name = 
REMARK  22 active torsions:
REMARK  status: ('A' for Active; 'I' for Inactive)
REMARK    1  A    between atoms: C_1  and  C_2
REMARK    2  A    between atoms: C_2  and  C_3
REMARK    3  A    between atoms: C_2  and  C_6
REMARK    4  A    between atoms: C_3  and  C_4
REMARK    5  A    between atoms: C_3  and  C_5
REMARK    6  A    between atoms: C_6  and  C_50
REMARK    7  A    between atoms: C_9  and  C_49
REMARK    8  A    between atoms: C_14  and  C_48
REMARK    9  A    between atoms: C_17  and  O_47
REMARK   10  A    between atoms: C_22  and  C_27
REMARK   11  A    between atoms: C_23  and  C_24
REMARK   12  A    between atoms: C_24  and  O_26
REMARK   13  A    between atoms: C_29  and  O_43
REMARK   14  A    between atoms: C_30  and  O_31
REMARK   15  A    between atoms: O_31  and  C_32
REMARK   16  A    between atoms: C_33  and  O_42
REMARK   17  A    between atoms: C_34  and  O_41
REMARK   18  A    between atoms: C_35  and  O_40
REMARK   19  A    between atoms: C_36  and  C_38
REMARK   20  A    between atoms: C_38  and  O_39
REMARK   21  A    between atoms: O_43  and  C_44
REMARK   22  A    between atoms: C_44  and  C_46
REMARK                            x       y       z     vdW  Elec       q    Type
REMARK                         _______ _______ _______ _____ _____    ______ ____
ROOT
ATOM      1  C   UNL     1       1.461   1.894  -8.131  0.00  0.00    -0.016 C 
ATOM      2  C   UNL     1       0.932   2.654  -6.864  0.00  0.00    +0.008 C 
ATOM      3  C   UNL     1       0.505   1.903  -5.630  0.00  0.00    +0.008 C 
ATOM      4  C   UNL     1       1.252   0.588  -5.357  0.00  0.00    -0.019 C 
ATOM      5  C   UNL     1       1.757   0.536  -3.888  0.00  0.00    +0.022 C 
ATOM      6  C   UNL     1       0.821   1.060  -2.795  0.00  0.00    +0.009 C 
ATOM      7  C   UNL     1       1.596   0.979  -1.505  0.00  0.00    +0.006 C 
ATOM      8  C   UNL     1       1.938  -0.467  -1.141  0.00  0.00    +0.015 C 
ATOM      9  C   UNL     1       1.127  -1.054   0.018  0.00  0.00    +0.025 C 
ATOM     10  C   UNL     1      -0.265  -1.498  -0.455  0.00  0.00    +0.172 C 
ATOM     11  O   UNL     1      -0.134  -2.601  -1.333  0.00  0.00    -0.350 OA
ATOM     12  C   UNL     1       0.527  -2.229  -2.523  0.00  0.00    +0.257 C 
ATOM     13  C   UNL     1       1.922  -1.515  -2.307  0.00  0.00    +0.050 C 
ATOM     14  C   UNL     1       2.321  -0.849  -3.607  0.00  0.00    -0.059 C 
ATOM     15  C   UNL     1       2.977  -1.521  -4.574  0.00  0.00    -0.026 C 
ATOM     16  C   UNL     1       3.136  -1.034  -5.972  0.00  0.00    +0.035 C 
ATOM     17  C   UNL     1       2.568   0.394  -6.261  0.00  0.00    -0.009 C 
ATOM     18  C   UNL     1       2.239   0.552  -7.795  0.00  0.00    +0.110 C 
ATOM     19  C   UNL     1       3.720   1.389  -5.899  0.00  0.00    +0.013 C 
ATOM     20  C   UNL     1       2.970  -2.558  -1.887  0.00  0.00    +0.063 C 
ATOM     21  C   UNL     1       2.676  -3.167  -0.533  0.00  0.00    +0.207 C 
ATOM     22  C   UNL     1       1.971  -2.251   0.522  0.00  0.00    +0.170 C 
ATOM     23  C   UNL     1       0.923  -0.052   1.175  0.00  0.00    +0.016 C 
ATOM     24  C   UNL     1       0.175  -0.538  -5.527  0.00  0.00    +0.012 C 
ATOM     25  C   UNL     1       2.390   2.997  -8.756  0.00  0.00    +0.012 C 
ENDROOT
BRANCH   1  27
ATOM     26  C   UNL     1      -0.975   2.591  -8.982  0.00  0.00    +0.008 C 
ATOM     27  C   UNL     1       0.200   1.600  -9.102  0.00  0.00    -0.005 C 
BRANCH  27  28
ATOM     28  C   UNL     1      -0.384   0.145  -9.124  0.00  0.00    -0.014 C 
ATOM     29  C   UNL     1      -1.838  -0.040  -8.654  0.00  0.00    +0.007 C 
ATOM     30  C   UNL     1      -0.306  -0.442 -10.543  0.00  0.00    +0.007 C 
ENDBRANCH  27  28
ENDBRANCH   1  27
BRANCH  18  31
ATOM     31  C   UNL     1       3.471   0.113  -8.682  0.00  0.00    +0.309 C 
ATOM     32  O   UNL     1       4.594   0.613  -8.605  0.00  0.00    -0.251 OA
BRANCH  31  33
ATOM     33  O   UNL     1       3.324  -0.932  -9.509  0.00  0.00    -0.480 OA
ATOM     34  H   UNL     1       2.504  -1.428  -9.443  0.00  0.00    +0.295 HD
ENDBRANCH  31  33
ENDBRANCH  18  31
BRANCH  12  35
ATOM     35  O   UNL     1       0.670  -3.444  -3.244  0.00  0.00    -0.366 OA
ATOM     36  H   UNL     1      -0.115  -3.957  -2.969  0.00  0.00    +0.213 HD
ENDBRANCH  12  35
BRANCH  22  37
ATOM     37  O   UNL     1       1.106  -3.003   1.371  0.00  0.00    -0.341 OA
BRANCH  37  38
ATOM     38  C   UNL     1       1.244  -4.407   1.294  0.00  0.00    +0.282 C 
ATOM     39  C   UNL     1       1.795  -4.951   2.618  0.00  0.00    +0.201 C 
ATOM     40  C   UNL     1       1.210  -6.336   2.909  0.00  0.00    +0.179 C 
ATOM     41  C   UNL     1       0.897  -7.114   1.607  0.00  0.00    +0.177 C 
ATOM     42  C   UNL     1       0.112  -6.284   0.565  0.00  0.00    +0.178 C 
ATOM     43  O   UNL     1      -0.042  -4.926   1.003  0.00  0.00    -0.341 OA
BRANCH  41  44
ATOM     44  O   UNL     1       2.141  -7.480   0.970  0.00  0.00    -0.386 OA
ATOM     45  H   UNL     1       2.868  -7.350   1.608  0.00  0.00    +0.210 HD
ENDBRANCH  41  44
BRANCH  40  46
ATOM     46  O   UNL     1       0.053  -6.231   3.740  0.00  0.00    -0.386 OA
ATOM     47  H   UNL     1       0.357  -5.905   4.607  0.00  0.00    +0.210 HD
ENDBRANCH  40  46
BRANCH  39  48
ATOM     48  O   UNL     1       3.241  -5.080   2.616  0.00  0.00    -0.384 OA
ATOM     49  H   UNL     1       3.550  -5.166   3.526  0.00  0.00    +0.210 HD
ENDBRANCH  39  48
BRANCH  42  50
ATOM     50  C   UNL     1      -1.285  -6.810   0.250  0.00  0.00    +0.190 C 
BRANCH  50  51
ATOM     51  O   UNL     1      -2.039  -6.898   1.466  0.00  0.00    -0.392 OA
ATOM     52  H   UNL     1      -2.800  -6.292   1.346  0.00  0.00    +0.210 HD
ENDBRANCH  50  51
ENDBRANCH  42  50
ENDBRANCH  37  38
ENDBRANCH  22  37
BRANCH  21  53
ATOM     53  O   UNL     1       3.986  -3.494   0.046  0.00  0.00    -0.459 OA
BRANCH  53  54
ATOM     54  C   UNL     1       4.579  -4.653  -0.340  0.00  0.00    +0.304 C 
ATOM     55  O   UNL     1       4.051  -5.757  -0.324  0.00  0.00    -0.251 OA
ATOM     56  C   UNL     1       5.964  -4.386  -0.854  0.00  0.00    +0.136 C 
ENDBRANCH  53  54
ENDBRANCH  21  53
TORSDOF 14
ENDMDL
MODEL 5
REMARK VINA RESULT:     0.002      4.006      8.565
REMARK INTER + INTRA:          -2.942
REMARK INTER:                   0.000
REMARK INTRA:                  -2.942
REMARK UNBOUND:                -2.945
REMARK  Name = 
REMARK  22 active torsions:
REMARK  status: ('A' for Active; 'I' for Inactive)
REMARK    1  A    between atoms: C_1  and  C_2
REMARK    2  A    between atoms: C_2  and  C_3
REMARK    3  A    between atoms: C_2  and  C_6
REMARK    4  A    between atoms: C_3  and  C_4
REMARK    5  A    between atoms: C_3  and  C_5
REMARK    6  A    between atoms: C_6  and  C_50
REMARK    7  A    between atoms: C_9  and  C_49
REMARK    8  A    between atoms: C_14  and  C_48
REMARK    9  A    between atoms: C_17  and  O_47
REMARK   10  A    between atoms: C_22  and  C_27
REMARK   11  A    between atoms: C_23  and  C_24
REMARK   12  A    between atoms: C_24  and  O_26
REMARK   13  A    between atoms: C_29  and  O_43
REMARK   14  A    between atoms: C_30  and  O_31
REMARK   15  A    between atoms: O_31  and  C_32
REMARK   16  A    between atoms: C_33  and  O_42
REMARK   17  A    between atoms: C_34  and  O_41
REMARK   18  A    between atoms: C_35  and  O_40
REMARK   19  A    between atoms: C_36  and  C_38
REMARK   20  A    between atoms: C_38  and  O_39
REMARK   21  A    between atoms: O_43  and  C_44
REMARK   22  A    between atoms: C_44  and  C_46
REMARK                            x       y       z     vdW  Elec       q    Type
REMARK                         _______ _______ _______ _____ _____    ______ ____
ROOT
ATOM      1  C   UNL     1       7.165  -0.606   2.222  0.00  0.00    -0.016 C 
ATOM      2  C   UNL     1       6.111  -1.682   2.659  0.00  0.00    +0.008 C 
ATOM      3  C   UNL     1       4.639  -1.472   2.414  0.00  0.00    +0.008 C 
ATOM      4  C   UNL     1       4.281  -0.654   1.163  0.00  0.00    -0.019 C 
ATOM      5  C   UNL     1       3.205  -1.388   0.314  0.00  0.00    +0.022 C 
ATOM      6  C   UNL     1       2.061  -2.080   1.061  0.00  0.00    +0.009 C 
ATOM      7  C   UNL     1       1.237  -2.779   0.010  0.00  0.00    +0.006 C 
ATOM      8  C   UNL     1       0.597  -1.785  -0.961  0.00  0.00    +0.015 C 
ATOM      9  C   UNL     1      -0.910  -1.583  -0.783  0.00  0.00    +0.025 C 
ATOM     10  C   UNL     1      -1.204  -0.634   0.388  0.00  0.00    +0.172 C 
ATOM     11  O   UNL     1      -0.752   0.668   0.064  0.00  0.00    -0.350 OA
ATOM     12  C   UNL     1       0.654   0.703  -0.059  0.00  0.00    +0.257 C 
ATOM     13  C   UNL     1       1.255  -0.366  -1.059  0.00  0.00    +0.050 C 
ATOM     14  C   UNL     1       2.745  -0.467  -0.806  0.00  0.00    -0.059 C 
ATOM     15  C   UNL     1       3.622   0.369  -1.397  0.00  0.00    -0.026 C 
ATOM     16  C   UNL     1       5.042   0.526  -0.979  0.00  0.00    +0.035 C 
ATOM     17  C   UNL     1       5.521  -0.427   0.164  0.00  0.00    -0.009 C 
ATOM     18  C   UNL     1       6.757   0.199   0.916  0.00  0.00    +0.110 C 
ATOM     19  C   UNL     1       5.990  -1.739  -0.548  0.00  0.00    +0.013 C 
ATOM     20  C   UNL     1       0.979   0.076  -2.504  0.00  0.00    +0.063 C 
ATOM     21  C   UNL     1      -0.497   0.077  -2.842  0.00  0.00    +0.207 C 
ATOM     22  C   UNL     1      -1.390  -0.994  -2.133  0.00  0.00    +0.170 C 
ATOM     23  C   UNL     1      -1.664  -2.903  -0.507  0.00  0.00    +0.016 C 
ATOM     24  C   UNL     1       3.635   0.666   1.707  0.00  0.00    +0.012 C 
ATOM     25  C   UNL     1       8.428  -1.518   2.006  0.00  0.00    +0.012 C 
ENDROOT
BRANCH   1  27
ATOM     26  C   UNL     1       7.146  -0.203   4.864  0.00  0.00    +0.008 C 
ATOM     27  C   UNL     1       7.401   0.399   3.468  0.00  0.00    -0.005 C 
BRANCH  27  28
ATOM     28  C   UNL     1       6.719   1.810   3.408  0.00  0.00    -0.014 C 
ATOM     29  C   UNL     1       5.676   2.138   4.492  0.00  0.00    +0.007 C 
ATOM     30  C   UNL     1       7.781   2.921   3.475  0.00  0.00    +0.007 C 
ENDBRANCH  27  28
ENDBRANCH   1  27
BRANCH  18  31
ATOM     31  C   UNL     1       7.871   0.650  -0.111  0.00  0.00    +0.309 C 
ATOM     32  O   UNL     1       8.414  -0.103  -0.919  0.00  0.00    -0.251 OA
BRANCH  31  33
ATOM     33  O   UNL     1       8.185   1.951  -0.181  0.00  0.00    -0.480 OA
ATOM     34  H   UNL     1       8.367   2.310  -1.053  0.00  0.00    +0.295 HD
ENDBRANCH  31  33
ENDBRANCH  18  31
BRANCH  12  35
ATOM     35  O   UNL     1       0.939   2.029  -0.480  0.00  0.00    -0.366 OA
ATOM     36  H   UNL     1       0.305   2.564   0.034  0.00  0.00    +0.213 HD
ENDBRANCH  12  35
BRANCH  22  37
ATOM     37  O   UNL     1      -2.706  -0.500  -1.892  0.00  0.00    -0.341 OA
BRANCH  37  38
ATOM     38  C   UNL     1      -3.036   0.705  -2.551  0.00  0.00    +0.282 C 
ATOM     39  C   UNL     1      -4.127   0.447  -3.597  0.00  0.00    +0.201 C 
ATOM     40  C   UNL     1      -5.056   1.661  -3.709  0.00  0.00    +0.179 C 
ATOM     41  C   UNL     1      -4.312   2.984  -3.403  0.00  0.00    +0.177 C 
ATOM     42  C   UNL     1      -3.464   2.932  -2.111  0.00  0.00    +0.178 C 
ATOM     43  O   UNL     1      -3.465   1.611  -1.550  0.00  0.00    -0.341 OA
BRANCH  41  44
ATOM     44  O   UNL     1      -3.386   3.260  -4.478  0.00  0.00    -0.386 OA
ATOM     45  H   UNL     1      -2.502   3.417  -4.094  0.00  0.00    +0.210 HD
ENDBRANCH  41  44
BRANCH  40  46
ATOM     46  O   UNL     1      -6.197   1.502  -2.866  0.00  0.00    -0.386 OA
ATOM     47  H   UNL     1      -6.562   0.616  -3.049  0.00  0.00    +0.210 HD
ENDBRANCH  40  46
BRANCH  39  48
ATOM     48  O   UNL     1      -3.589   0.187  -4.921  0.00  0.00    -0.384 OA
ATOM     49  H   UNL     1      -2.836  -0.412  -4.841  0.00  0.00    +0.210 HD
ENDBRANCH  39  48
BRANCH  42  50
ATOM     50  C   UNL     1      -3.920   3.884  -1.009  0.00  0.00    +0.190 C 
BRANCH  50  51
ATOM     51  O   UNL     1      -5.294   3.617  -0.698  0.00  0.00    -0.392 OA
ATOM     52  H   UNL     1      -5.614   3.029  -1.413  0.00  0.00    +0.210 HD
ENDBRANCH  50  51
ENDBRANCH  42  50
ENDBRANCH  37  38
ENDBRANCH  22  37
BRANCH  21  53
ATOM     53  O   UNL     1      -0.575  -0.235  -4.275  0.00  0.00    -0.459 OA
BRANCH  53  54
ATOM     54  C   UNL     1      -0.379   0.780  -5.157  0.00  0.00    +0.304 C 
ATOM     55  O   UNL     1      -0.958   1.857  -5.136  0.00  0.00    -0.251 OA
ATOM     56  C   UNL     1       0.703   0.420  -6.135  0.00  0.00    +0.136 C 
ENDBRANCH  53  54
ENDBRANCH  21  53
TORSDOF 14
ENDMDL
MODEL 6
REMARK VINA RESULT:     0.004      5.758      7.596
REMARK INTER + INTRA:          -2.939
REMARK INTER:                   0.000
REMARK INTRA:                  -2.939
REMARK UNBOUND:                -2.945
REMARK  Name = 
REMARK  22 active torsions:
REMARK  status: ('A' for Active; 'I' for Inactive)
REMARK    1  A    between atoms: C_1  and  C_2
REMARK    2  A    between atoms: C_2  and  C_3
REMARK    3  A    between atoms: C_2  and  C_6
REMARK    4  A    between atoms: C_3  and  C_4
REMARK    5  A    between atoms: C_3  and  C_5
REMARK    6  A    between atoms: C_6  and  C_50
REMARK    7  A    between atoms: C_9  and  C_49
REMARK    8  A    between atoms: C_14  and  C_48
REMARK    9  A    between atoms: C_17  and  O_47
REMARK   10  A    between atoms: C_22  and  C_27
REMARK   11  A    between atoms: C_23  and  C_24
REMARK   12  A    between atoms: C_24  and  O_26
REMARK   13  A    between atoms: C_29  and  O_43
REMARK   14  A    between atoms: C_30  and  O_31
REMARK   15  A    between atoms: O_31  and  C_32
REMARK   16  A    between atoms: C_33  and  O_42
REMARK   17  A    between atoms: C_34  and  O_41
REMARK   18  A    between atoms: C_35  and  O_40
REMARK   19  A    between atoms: C_36  and  C_38
REMARK   20  A    between atoms: C_38  and  O_39
REMARK   21  A    between atoms: O_43  and  C_44
REMARK   22  A    between atoms: C_44  and  C_46
REMARK                            x       y       z     vdW  Elec       q    Type
REMARK                         _______ _______ _______ _____ _____    ______ ____
ROOT
ATOM      1  C   UNL     1      -0.939  -3.197  -2.607  0.00  0.00    -0.016 C 
ATOM      2  C   UNL     1      -1.816  -2.654  -1.424  0.00  0.00    +0.008 C 
ATOM      3  C   UNL     1      -1.560  -3.088  -0.004  0.00  0.00    +0.008 C 
ATOM      4  C   UNL     1      -0.097  -3.411   0.341  0.00  0.00    -0.019 C 
ATOM      5  C   UNL     1       0.338  -2.677   1.639  0.00  0.00    +0.022 C 
ATOM      6  C   UNL     1      -0.667  -2.617   2.794  0.00  0.00    +0.009 C 
ATOM      7  C   UNL     1      -0.024  -1.776   3.866  0.00  0.00    +0.006 C 
ATOM      8  C   UNL     1       1.244  -2.431   4.415  0.00  0.00    +0.015 C 
ATOM      9  C   UNL     1       1.110  -3.031   5.818  0.00  0.00    +0.025 C 
ATOM     10  C   UNL     1       0.420  -4.402   5.766  0.00  0.00    +0.172 C 
ATOM     11  O   UNL     1       1.264  -5.330   5.110  0.00  0.00    -0.350 OA
ATOM     12  C   UNL     1       1.441  -4.986   3.753  0.00  0.00    +0.257 C 
ATOM     13  C   UNL     1       1.938  -3.504   3.507  0.00  0.00    +0.050 C 
ATOM     14  C   UNL     1       1.720  -3.167   2.047  0.00  0.00    -0.059 C 
ATOM     15  C   UNL     1       2.632  -3.477   1.105  0.00  0.00    -0.026 C 
ATOM     16  C   UNL     1       2.366  -3.450  -0.360  0.00  0.00    +0.035 C 
ATOM     17  C   UNL     1       0.951  -2.935  -0.782  0.00  0.00    -0.009 C 
ATOM     18  C   UNL     1       0.566  -3.499  -2.204  0.00  0.00    +0.110 C 
ATOM     19  C   UNL     1       1.081  -1.380  -0.888  0.00  0.00    +0.013 C 
ATOM     20  C   UNL     1       3.426  -3.398   3.872  0.00  0.00    +0.063 C 
ATOM     21  C   UNL     1       3.682  -3.610   5.349  0.00  0.00    +0.207 C 
ATOM     22  C   UNL     1       2.565  -3.141   6.339  0.00  0.00    +0.170 C 
ATOM     23  C   UNL     1       0.292  -2.138   6.776  0.00  0.00    +0.016 C 
ATOM     24  C   UNL     1      -0.077  -4.950   0.638  0.00  0.00    +0.012 C 
ATOM     25  C   UNL     1      -1.070  -2.007  -3.626  0.00  0.00    +0.012 C 
ENDROOT
BRANCH   1  27
ATOM     26  C   UNL     1      -3.184  -4.592  -3.004  0.00  0.00    +0.008 C 
ATOM     27  C   UNL     1      -1.656  -4.524  -3.193  0.00  0.00    -0.005 C 
BRANCH  27  28
ATOM     28  C   UNL     1      -1.049  -5.917  -2.802  0.00  0.00    -0.014 C 
ATOM     29  C   UNL     1      -1.942  -6.874  -1.991  0.00  0.00    +0.007 C 
ATOM     30  C   UNL     1      -0.618  -6.685  -4.062  0.00  0.00    +0.007 C 
ENDBRANCH  27  28
ENDBRANCH   1  27
BRANCH  18  31
ATOM     31  C   UNL     1       1.727  -3.242  -3.245  0.00  0.00    +0.309 C 
ATOM     32  O   UNL     1       2.179  -2.129  -3.517  0.00  0.00    -0.251 OA
BRANCH  31  33
ATOM     33  O   UNL     1       2.330  -4.300  -3.803  0.00  0.00    -0.480 OA
ATOM     34  H   UNL     1       3.030  -4.722  -3.298  0.00  0.00    +0.295 HD
ENDBRANCH  31  33
ENDBRANCH  18  31
BRANCH  12  35
ATOM     35  O   UNL     1       2.377  -5.937   3.266  0.00  0.00    -0.366 OA
ATOM     36  H   UNL     1       2.315  -5.832   2.298  0.00  0.00    +0.213 HD
ENDBRANCH  12  35
BRANCH  22  37
ATOM     37  O   UNL     1       2.500  -3.980   7.489  0.00  0.00    -0.341 OA
BRANCH  37  38
ATOM     38  C   UNL     1       3.583  -4.872   7.657  0.00  0.00    +0.282 C 
ATOM     39  C   UNL     1       4.391  -4.485   8.901  0.00  0.00    +0.201 C 
ATOM     40  C   UNL     1       4.957  -5.737   9.579  0.00  0.00    +0.179 C 
ATOM     41  C   UNL     1       5.248  -6.863   8.557  0.00  0.00    +0.177 C 
ATOM     42  C   UNL     1       4.080  -7.127   7.579  0.00  0.00    +0.178 C 
ATOM     43  O   UNL     1       3.027  -6.170   7.769  0.00  0.00    -0.341 OA
BRANCH  41  44
ATOM     44  O   UNL     1       6.373  -6.473   7.738  0.00  0.00    -0.386 OA
ATOM     45  H   UNL     1       6.376  -5.501   7.655  0.00  0.00    +0.210 HD
ENDBRANCH  41  44
BRANCH  40  46
ATOM     46  O   UNL     1       4.083  -6.190  10.613  0.00  0.00    -0.386 OA
ATOM     47  H   UNL     1       4.454  -5.869  11.457  0.00  0.00    +0.210 HD
ENDBRANCH  40  46
BRANCH  39  48
ATOM     48  O   UNL     1       5.510  -3.610   8.597  0.00  0.00    -0.384 OA
ATOM     49  H   UNL     1       5.487  -3.387   7.658  0.00  0.00    +0.210 HD
ENDBRANCH  39  48
BRANCH  42  50
ATOM     50  C   UNL     1       3.449  -8.511   7.695  0.00  0.00    +0.190 C 
BRANCH  50  51
ATOM     51  O   UNL     1       3.003  -8.712   9.043  0.00  0.00    -0.392 OA
ATOM     52  H   UNL     1       2.059  -8.452   9.047  0.00  0.00    +0.210 HD
ENDBRANCH  50  51
ENDBRANCH  42  50
ENDBRANCH  37  38
ENDBRANCH  22  37
BRANCH  21  53
ATOM     53  O   UNL     1       4.858  -2.791   5.669  0.00  0.00    -0.459 OA
BRANCH  53  54
ATOM     54  C   UNL     1       6.084  -3.305   5.389  0.00  0.00    +0.304 C 
ATOM     55  O   UNL     1       6.486  -4.406   5.739  0.00  0.00    -0.251 OA
ATOM     56  C   UNL     1       6.865  -2.353   4.528  0.00  0.00    +0.136 C 
ENDBRANCH  53  54
ENDBRANCH  21  53
TORSDOF 14
ENDMDL
MODEL 7
REMARK VINA RESULT:     0.004      5.216     10.481
REMARK INTER + INTRA:          -2.939
REMARK INTER:                   0.000
REMARK INTRA:                  -2.939
REMARK UNBOUND:                -2.945
REMARK  Name = 
REMARK  22 active torsions:
REMARK  status: ('A' for Active; 'I' for Inactive)
REMARK    1  A    between atoms: C_1  and  C_2
REMARK    2  A    between atoms: C_2  and  C_3
REMARK    3  A    between atoms: C_2  and  C_6
REMARK    4  A    between atoms: C_3  and  C_4
REMARK    5  A    between atoms: C_3  and  C_5
REMARK    6  A    between atoms: C_6  and  C_50
REMARK    7  A    between atoms: C_9  and  C_49
REMARK    8  A    between atoms: C_14  and  C_48
REMARK    9  A    between atoms: C_17  and  O_47
REMARK   10  A    between atoms: C_22  and  C_27
REMARK   11  A    between atoms: C_23  and  C_24
REMARK   12  A    between atoms: C_24  and  O_26
REMARK   13  A    between atoms: C_29  and  O_43
REMARK   14  A    between atoms: C_30  and  O_31
REMARK   15  A    between atoms: O_31  and  C_32
REMARK   16  A    between atoms: C_33  and  O_42
REMARK   17  A    between atoms: C_34  and  O_41
REMARK   18  A    between atoms: C_35  and  O_40
REMARK   19  A    between atoms: C_36  and  C_38
REMARK   20  A    between atoms: C_38  and  O_39
REMARK   21  A    between atoms: O_43  and  C_44
REMARK   22  A    between atoms: C_44  and  C_46
REMARK                            x       y       z     vdW  Elec       q    Type
REMARK                         _______ _______ _______ _____ _____    ______ ____
ROOT
ATOM      1  C   UNL     1       3.472   6.802  -6.107  0.00  0.00    -0.016 C 
ATOM      2  C   UNL     1       4.842   6.303  -6.686  0.00  0.00    +0.008 C 
ATOM      3  C   UNL     1       5.360   4.922  -6.377  0.00  0.00    +0.008 C 
ATOM      4  C   UNL     1       4.289   3.839  -6.166  0.00  0.00    -0.019 C 
ATOM      5  C   UNL     1       4.602   2.580  -7.021  0.00  0.00    +0.022 C 
ATOM      6  C   UNL     1       6.062   2.126  -7.109  0.00  0.00    +0.009 C 
ATOM      7  C   UNL     1       6.082   0.961  -8.065  0.00  0.00    +0.006 C 
ATOM      8  C   UNL     1       5.279  -0.225  -7.528  0.00  0.00    +0.015 C 
ATOM      9  C   UNL     1       6.118  -1.405  -7.029  0.00  0.00    +0.025 C 
ATOM     10  C   UNL     1       6.666  -1.133  -5.621  0.00  0.00    +0.172 C 
ATOM     11  O   UNL     1       5.595  -1.102  -4.697  0.00  0.00    -0.350 OA
ATOM     12  C   UNL     1       4.739  -0.007  -4.946  0.00  0.00    +0.257 C 
ATOM     13  C   UNL     1       4.203   0.085  -6.432  0.00  0.00    +0.050 C 
ATOM     14  C   UNL     1       3.631   1.471  -6.644  0.00  0.00    -0.059 C 
ATOM     15  C   UNL     1       2.358   1.770  -6.318  0.00  0.00    -0.026 C 
ATOM     16  C   UNL     1       1.821   3.154  -6.218  0.00  0.00    +0.035 C 
ATOM     17  C   UNL     1       2.813   4.296  -6.616  0.00  0.00    -0.009 C 
ATOM     18  C   UNL     1       2.395   5.650  -5.925  0.00  0.00    +0.110 C 
ATOM     19  C   UNL     1       2.663   4.466  -8.164  0.00  0.00    +0.013 C 
ATOM     20  C   UNL     1       3.124  -0.986  -6.652  0.00  0.00    +0.063 C 
ATOM     21  C   UNL     1       3.674  -2.395  -6.567  0.00  0.00    +0.207 C 
ATOM     22  C   UNL     1       5.148  -2.612  -7.045  0.00  0.00    +0.170 C 
ATOM     23  C   UNL     1       7.325  -1.711  -7.944  0.00  0.00    +0.016 C 
ATOM     24  C   UNL     1       4.410   3.430  -4.658  0.00  0.00    +0.012 C 
ATOM     25  C   UNL     1       3.064   7.849  -7.207  0.00  0.00    +0.012 C 
ENDROOT
BRANCH   1  27
ATOM     26  C   UNL     1       5.165   8.172  -4.558  0.00  0.00    +0.008 C 
ATOM     27  C   UNL     1       3.764   7.545  -4.700  0.00  0.00    -0.005 C 
BRANCH  27  28
ATOM     28  C   UNL     1       3.437   6.766  -3.379  0.00  0.00    -0.014 C 
ATOM     29  C   UNL     1       4.613   6.449  -2.436  0.00  0.00    +0.007 C 
ATOM     30  C   UNL     1       2.404   7.539  -2.543  0.00  0.00    +0.007 C 
ENDBRANCH  27  28
ENDBRANCH   1  27
BRANCH  18  31
ATOM     31  C   UNL     1       0.864   5.957  -6.170  0.00  0.00    +0.309 C 
ATOM     32  O   UNL     1       0.348   6.061  -7.283  0.00  0.00    -0.251 OA
BRANCH  31  33
ATOM     33  O   UNL     1       0.047   6.018  -5.109  0.00  0.00    -0.480 OA
ATOM     34  H   UNL     1      -0.603   5.317  -5.018  0.00  0.00    +0.295 HD
ENDBRANCH  31  33
ENDBRANCH  18  31
BRANCH  12  35
ATOM     35  O   UNL     1       3.677  -0.169  -4.018  0.00  0.00    -0.366 OA
ATOM     36  H   UNL     1       3.096   0.591  -4.212  0.00  0.00    +0.213 HD
ENDBRANCH  12  35
BRANCH  22  37
ATOM     37  O   UNL     1       5.795  -3.636  -6.292  0.00  0.00    -0.341 OA
BRANCH  37  38
ATOM     38  C   UNL     1       4.949  -4.423  -5.479  0.00  0.00    +0.282 C 
ATOM     39  C   UNL     1       4.912  -5.864  -6.004  0.00  0.00    +0.201 C 
ATOM     40  C   UNL     1       4.770  -6.851  -4.840  0.00  0.00    +0.179 C 
ATOM     41  C   UNL     1       3.978  -6.238  -3.660  0.00  0.00    +0.177 C 
ATOM     42  C   UNL     1       4.462  -4.826  -3.257  0.00  0.00    +0.178 C 
ATOM     43  O   UNL     1       5.469  -4.352  -4.163  0.00  0.00    -0.341 OA
BRANCH  41  44
ATOM     44  O   UNL     1       2.595  -6.089  -4.051  0.00  0.00    -0.386 OA
ATOM     45  H   UNL     1       2.099  -6.874  -3.749  0.00  0.00    +0.210 HD
ENDBRANCH  41  44
BRANCH  40  46
ATOM     46  O   UNL     1       6.052  -7.319  -4.417  0.00  0.00    -0.386 OA
ATOM     47  H   UNL     1       6.713  -6.713  -4.799  0.00  0.00    +0.210 HD
ENDBRANCH  40  46
BRANCH  39  48
ATOM     48  O   UNL     1       3.808  -6.103  -6.916  0.00  0.00    -0.384 OA
ATOM     49  H   UNL     1       4.123  -6.636  -7.657  0.00  0.00    +0.210 HD
ENDBRANCH  39  48
BRANCH  42  50
ATOM     50  C   UNL     1       5.047  -4.727  -1.851  0.00  0.00    +0.190 C 
BRANCH  50  51
ATOM     51  O   UNL     1       6.127  -5.662  -1.726  0.00  0.00    -0.392 OA
ATOM     52  H   UNL     1       6.153  -6.146  -2.578  0.00  0.00    +0.210 HD
ENDBRANCH  50  51
ENDBRANCH  42  50
ENDBRANCH  37  38
ENDBRANCH  22  37
BRANCH  21  53
ATOM     53  O   UNL     1       2.846  -3.198  -7.475  0.00  0.00    -0.459 OA
BRANCH  53  54
ATOM     54  C   UNL     1       1.649  -3.645  -7.014  0.00  0.00    +0.304 C 
ATOM     55  O   UNL     1       1.477  -4.255  -5.967  0.00  0.00    -0.251 OA
ATOM     56  C   UNL     1       0.543  -3.230  -7.942  0.00  0.00    +0.136 C 
ENDBRANCH  53  54
ENDBRANCH  21  53
TORSDOF 14
ENDMDL
MODEL 8
REMARK VINA RESULT:     0.004      5.387     11.678
REMARK INTER + INTRA:          -2.939
REMARK INTER:                   0.000
REMARK INTRA:                  -2.939
REMARK UNBOUND:                -2.945
REMARK  Name = 
REMARK  22 active torsions:
REMARK  status: ('A' for Active; 'I' for Inactive)
REMARK    1  A    between atoms: C_1  and  C_2
REMARK    2  A    between atoms: C_2  and  C_3
REMARK    3  A    between atoms: C_2  and  C_6
REMARK    4  A    between atoms: C_3  and  C_4
REMARK    5  A    between atoms: C_3  and  C_5
REMARK    6  A    between atoms: C_6  and  C_50
REMARK    7  A    between atoms: C_9  and  C_49
REMARK    8  A    between atoms: C_14  and  C_48
REMARK    9  A    between atoms: C_17  and  O_47
REMARK   10  A    between atoms: C_22  and  C_27
REMARK   11  A    between atoms: C_23  and  C_24
REMARK   12  A    between atoms: C_24  and  O_26
REMARK   13  A    between atoms: C_29  and  O_43
REMARK   14  A    between atoms: C_30  and  O_31
REMARK   15  A    between atoms: O_31  and  C_32
REMARK   16  A    between atoms: C_33  and  O_42
REMARK   17  A    between atoms: C_34  and  O_41
REMARK   18  A    between atoms: C_35  and  O_40
REMARK   19  A    between atoms: C_36  and  C_38
REMARK   20  A    between atoms: C_38  and  O_39
REMARK   21  A    between atoms: O_43  and  C_44
REMARK   22  A    between atoms: C_44  and  C_46
REMARK                            x       y       z     vdW  Elec       q    Type
REMARK                         _______ _______ _______ _____ _____    ______ ____
ROOT
ATOM      1  C   UNL     1      -2.010   3.172   6.077  0.00  0.00    -0.016 C 
ATOM      2  C   UNL     1      -1.672   1.640   6.084  0.00  0.00    +0.008 C 
ATOM      3  C   UNL     1      -2.227   0.717   5.030  0.00  0.00    +0.008 C 
ATOM      4  C   UNL     1      -2.455   1.345   3.646  0.00  0.00    -0.019 C 
ATOM      5  C   UNL     1      -1.824   0.466   2.531  0.00  0.00    +0.022 C 
ATOM      6  C   UNL     1      -1.974  -1.054   2.654  0.00  0.00    +0.009 C 
ATOM      7  C   UNL     1      -1.195  -1.646   1.507  0.00  0.00    +0.006 C 
ATOM      8  C   UNL     1      -1.790  -1.249   0.154  0.00  0.00    +0.015 C 
ATOM      9  C   UNL     1      -2.543  -2.365  -0.576  0.00  0.00    +0.025 C 
ATOM     10  C   UNL     1      -3.956  -2.543  -0.002  0.00  0.00    +0.172 C 
ATOM     11  O   UNL     1      -4.733  -1.398  -0.300  0.00  0.00    -0.350 OA
ATOM     12  C   UNL     1      -4.235  -0.258   0.367  0.00  0.00    +0.257 C 
ATOM     13  C   UNL     1      -2.698   0.029   0.127  0.00  0.00    +0.050 C 
ATOM     14  C   UNL     1      -2.231   1.019   1.173  0.00  0.00    -0.059 C 
ATOM     15  C   UNL     1      -2.360   2.349   0.997  0.00  0.00    -0.026 C 
ATOM     16  C   UNL     1      -2.204   3.357   2.081  0.00  0.00    +0.035 C 
ATOM     17  C   UNL     1      -1.774   2.792   3.474  0.00  0.00    -0.009 C 
ATOM     18  C   UNL     1      -2.219   3.776   4.624  0.00  0.00    +0.110 C 
ATOM     19  C   UNL     1      -0.211   2.742   3.446  0.00  0.00    +0.013 C 
ATOM     20  C   UNL     1      -2.500   0.598  -1.286  0.00  0.00    +0.063 C 
ATOM     21  C   UNL     1      -2.843  -0.401  -2.371  0.00  0.00    +0.207 C 
ATOM     22  C   UNL     1      -2.578  -1.911  -2.057  0.00  0.00    +0.170 C 
ATOM     23  C   UNL     1      -1.829  -3.731  -0.480  0.00  0.00    +0.016 C 
ATOM     24  C   UNL     1      -4.009   1.329   3.439  0.00  0.00    +0.012 C 
ATOM     25  C   UNL     1      -0.736   3.746   6.798  0.00  0.00    +0.012 C 
ENDROOT
BRANCH   1  27
ATOM     26  C   UNL     1      -3.547   2.358   8.106  0.00  0.00    +0.008 C 
ATOM     27  C   UNL     1      -3.326   3.399   6.990  0.00  0.00    -0.005 C 
BRANCH  27  28
ATOM     28  C   UNL     1      -4.693   3.632   6.257  0.00  0.00    -0.014 C 
ATOM     29  C   UNL     1      -5.804   2.590   6.484  0.00  0.00    +0.007 C 
ATOM     30  C   UNL     1      -5.286   4.995   6.653  0.00  0.00    +0.007 C 
ENDBRANCH  27  28
ENDBRANCH   1  27
BRANCH  18  31
ATOM     31  C   UNL     1      -1.754   5.254   4.311  0.00  0.00    +0.309 C 
ATOM     32  O   UNL     1      -0.584   5.585   4.118  0.00  0.00    -0.251 OA
BRANCH  31  33
ATOM     33  O   UNL     1      -2.691   6.198   4.151  0.00  0.00    -0.480 OA
ATOM     34  H   UNL     1      -2.421   7.013   3.720  0.00  0.00    +0.295 HD
ENDBRANCH  31  33
ENDBRANCH  18  31
BRANCH  12  35
ATOM     35  O   UNL     1      -5.045   0.809  -0.104  0.00  0.00    -0.366 OA
ATOM     36  H   UNL     1      -4.902   0.784  -1.070  0.00  0.00    +0.213 HD
ENDBRANCH  12  35
BRANCH  22  37
ATOM     37  O   UNL     1      -3.535  -2.752  -2.696  0.00  0.00    -0.341 OA
BRANCH  37  38
ATOM     38  C   UNL     1      -4.343  -2.127  -3.672  0.00  0.00    +0.282 C 
ATOM     39  C   UNL     1      -4.020  -2.696  -5.059  0.00  0.00    +0.201 C 
ATOM     40  C   UNL     1      -5.283  -2.734  -5.926  0.00  0.00    +0.179 C 
ATOM     41  C   UNL     1      -6.266  -1.595  -5.560  0.00  0.00    +0.177 C 
ATOM     42  C   UNL     1      -6.525  -1.467  -4.042  0.00  0.00    +0.178 C 
ATOM     43  O   UNL     1      -5.689  -2.367  -3.301  0.00  0.00    -0.341 OA
BRANCH  41  44
ATOM     44  O   UNL     1      -5.697  -0.333  -5.976  0.00  0.00    -0.386 OA
ATOM     45  H   UNL     1      -5.462   0.180  -5.180  0.00  0.00    +0.210 HD
ENDBRANCH  41  44
BRANCH  40  46
ATOM     46  O   UNL     1      -5.916  -4.011  -5.841  0.00  0.00    -0.386 OA
ATOM     47  H   UNL     1      -5.450  -4.599  -6.464  0.00  0.00    +0.210 HD
ENDBRANCH  40  46
BRANCH  39  48
ATOM     48  O   UNL     1      -3.025  -1.915  -5.772  0.00  0.00    -0.384 OA
ATOM     49  H   UNL     1      -3.422  -1.080  -6.051  0.00  0.00    +0.210 HD
ENDBRANCH  39  48
BRANCH  42  50
ATOM     50  C   UNL     1      -7.964  -1.742  -3.613  0.00  0.00    +0.190 C 
BRANCH  50  51
ATOM     51  O   UNL     1      -8.344  -3.050  -4.060  0.00  0.00    -0.392 OA
ATOM     52  H   UNL     1      -7.503  -3.535  -4.193  0.00  0.00    +0.210 HD
ENDBRANCH  50  51
ENDBRANCH  42  50
ENDBRANCH  37  38
ENDBRANCH  22  37
BRANCH  21  53
ATOM     53  O   UNL     1      -1.961  -0.075  -3.499  0.00  0.00    -0.459 OA
BRANCH  53  54
ATOM     54  C   UNL     1      -2.334   0.938  -4.324  0.00  0.00    +0.304 C 
ATOM     55  O   UNL     1      -3.427   1.046  -4.862  0.00  0.00    -0.251 OA
ATOM     56  C   UNL     1      -1.231   1.951  -4.438  0.00  0.00    +0.136 C 
ENDBRANCH  53  54
ENDBRANCH  21  53
TORSDOF 14
ENDMDL
MODEL 9
REMARK VINA RESULT:     0.004      5.039      9.266
REMARK INTER + INTRA:          -2.939
REMARK INTER:                   0.000
REMARK INTRA:                  -2.939
REMARK UNBOUND:                -2.945
REMARK  Name = 
REMARK  22 active torsions:
REMARK  status: ('A' for Active; 'I' for Inactive)
REMARK    1  A    between atoms: C_1  and  C_2
REMARK    2  A    between atoms: C_2  and  C_3
REMARK    3  A    between atoms: C_2  and  C_6
REMARK    4  A    between atoms: C_3  and  C_4
REMARK    5  A    between atoms: C_3  and  C_5
REMARK    6  A    between atoms: C_6  and  C_50
REMARK    7  A    between atoms: C_9  and  C_49
REMARK    8  A    between atoms: C_14  and  C_48
REMARK    9  A    between atoms: C_17  and  O_47
REMARK   10  A    between atoms: C_22  and  C_27
REMARK   11  A    between atoms: C_23  and  C_24
REMARK   12  A    between atoms: C_24  and  O_26
REMARK   13  A    between atoms: C_29  and  O_43
REMARK   14  A    between atoms: C_30  and  O_31
REMARK   15  A    between atoms: O_31  and  C_32
REMARK   16  A    between atoms: C_33  and  O_42
REMARK   17  A    between atoms: C_34  and  O_41
REMARK   18  A    between atoms: C_35  and  O_40
REMARK   19  A    between atoms: C_36  and  C_38
REMARK   20  A    between atoms: C_38  and  O_39
REMARK   21  A    between atoms: O_43  and  C_44
REMARK   22  A    between atoms: C_44  and  C_46
REMARK                            x       y       z     vdW  Elec       q    Type
REMARK                         _______ _______ _______ _____ _____    ______ ____
ROOT
ATOM      1  C   UNL     1      -1.052   5.560  -4.271  0.00  0.00    -0.016 C 
ATOM      2  C   UNL     1      -1.284   4.267  -3.412  0.00  0.00    +0.008 C 
ATOM      3  C   UNL     1      -0.298   3.128  -3.440  0.00  0.00    +0.008 C 
ATOM      4  C   UNL     1       1.169   3.521  -3.674  0.00  0.00    -0.019 C 
ATOM      5  C   UNL     1       2.093   2.858  -2.616  0.00  0.00    +0.022 C 
ATOM      6  C   UNL     1       1.800   1.405  -2.228  0.00  0.00    +0.009 C 
ATOM      7  C   UNL     1       2.775   1.060  -1.131  0.00  0.00    +0.006 C 
ATOM      8  C   UNL     1       4.222   1.105  -1.625  0.00  0.00    +0.015 C 
ATOM      9  C   UNL     1       4.887  -0.261  -1.814  0.00  0.00    +0.025 C 
ATOM     10  C   UNL     1       4.451  -0.907  -3.137  0.00  0.00    +0.172 C 
ATOM     11  O   UNL     1       4.970  -0.158  -4.220  0.00  0.00    -0.350 OA
ATOM     12  C   UNL     1       4.398   1.132  -4.266  0.00  0.00    +0.257 C 
ATOM     13  C   UNL     1       4.505   1.949  -2.915  0.00  0.00    +0.050 C 
ATOM     14  C   UNL     1       3.544   3.118  -2.991  0.00  0.00    -0.059 C 
ATOM     15  C   UNL     1       3.896   4.288  -3.560  0.00  0.00    -0.026 C 
ATOM     16  C   UNL     1       2.934   5.360  -3.935  0.00  0.00    +0.035 C 
ATOM     17  C   UNL     1       1.443   5.101  -3.539  0.00  0.00    -0.009 C 
ATOM     18  C   UNL     1       0.478   5.933  -4.468  0.00  0.00    +0.110 C 
ATOM     19  C   UNL     1       1.295   5.632  -2.075  0.00  0.00    +0.013 C 
ATOM     20  C   UNL     1       5.947   2.444  -2.731  0.00  0.00    +0.063 C 
ATOM     21  C   UNL     1       6.932   1.311  -2.531  0.00  0.00    +0.207 C 
ATOM     22  C   UNL     1       6.408   0.035  -1.793  0.00  0.00    +0.170 C 
ATOM     23  C   UNL     1       4.547  -1.255  -0.681  0.00  0.00    +0.016 C 
ATOM     24  C   UNL     1       1.539   2.915  -5.071  0.00  0.00    +0.012 C 
ATOM     25  C   UNL     1      -1.831   6.618  -3.406  0.00  0.00    +0.012 C 
ENDROOT
BRANCH   1  27
ATOM     26  C   UNL     1      -2.988   4.389  -5.693  0.00  0.00    +0.008 C 
ATOM     27  C   UNL     1      -1.783   5.350  -5.699  0.00  0.00    -0.005 C 
BRANCH  27  28
ATOM     28  C   UNL     1      -0.884   5.005  -6.937  0.00  0.00    -0.014 C 
ATOM     29  C   UNL     1      -1.116   3.646  -7.622  0.00  0.00    +0.007 C 
ATOM     30  C   UNL     1      -1.043   6.076  -8.029  0.00  0.00    +0.007 C 
ENDBRANCH  27  28
ENDBRANCH   1  27
BRANCH  18  31
ATOM     31  C   UNL     1       0.918   7.450  -4.522  0.00  0.00    +0.309 C 
ATOM     32  O   UNL     1       1.023   8.176  -3.534  0.00  0.00    -0.251 OA
BRANCH  31  33
ATOM     33  O   UNL     1       1.294   7.964  -5.701  0.00  0.00    -0.480 OA
ATOM     34  H   UNL     1       2.215   7.851  -5.953  0.00  0.00    +0.295 HD
ENDBRANCH  31  33
ENDBRANCH  18  31
BRANCH  12  35
ATOM     35  O   UNL     1       5.083   1.785  -5.325  0.00  0.00    -0.366 OA
ATOM     36  H   UNL     1       4.522   1.592  -6.101  0.00  0.00    +0.213 HD
ENDBRANCH  12  35
BRANCH  22  37
ATOM     37  O   UNL     1       7.037  -1.147  -2.282  0.00  0.00    -0.341 OA
BRANCH  37  38
ATOM     38  C   UNL     1       8.165  -0.941  -3.108  0.00  0.00    +0.282 C 
ATOM     39  C   UNL     1       9.428  -1.452  -2.405  0.00  0.00    +0.201 C 
ATOM     40  C   UNL     1      10.416  -2.019  -3.429  0.00  0.00    +0.179 C 
ATOM     41  C   UNL     1      10.301  -1.302  -4.797  0.00  0.00    +0.177 C 
ATOM     42  C   UNL     1       8.847  -1.166  -5.303  0.00  0.00    +0.178 C 
ATOM     43  O   UNL     1       7.915  -1.634  -4.317  0.00  0.00    -0.341 OA
BRANCH  41  44
ATOM     44  O   UNL     1      10.805   0.046  -4.662  0.00  0.00    -0.386 OA
ATOM     45  H   UNL     1      10.940   0.418  -5.554  0.00  0.00    +0.210 HD
ENDBRANCH  41  44
BRANCH  40  46
ATOM     46  O   UNL     1      10.243  -3.430  -3.569  0.00  0.00    -0.386 OA
ATOM     47  H   UNL     1       9.297  -3.581  -3.757  0.00  0.00    +0.210 HD
ENDBRANCH  40  46
BRANCH  39  48
ATOM     48  O   UNL     1      10.120  -0.413  -1.662  0.00  0.00    -0.384 OA
ATOM     49  H   UNL     1      11.019  -0.329  -2.003  0.00  0.00    +0.210 HD
ENDBRANCH  39  48
BRANCH  42  50
ATOM     50  C   UNL     1       8.546  -1.922  -6.594  0.00  0.00    +0.190 C 
BRANCH  50  51
ATOM     51  O   UNL     1       8.867  -3.308  -6.412  0.00  0.00    -0.392 OA
ATOM     52  H   UNL     1       9.637  -3.319  -5.806  0.00  0.00    +0.210 HD
ENDBRANCH  50  51
ENDBRANCH  42  50
ENDBRANCH  37  38
ENDBRANCH  22  37
BRANCH  21  53
ATOM     53  O   UNL     1       7.990   1.855  -1.670  0.00  0.00    -0.459 OA
BRANCH  53  54
ATOM     54  C   UNL     1       8.969   2.592  -2.256  0.00  0.00    +0.304 C 
ATOM     55  O   UNL     1       9.631   2.247  -3.225  0.00  0.00    -0.251 OA
ATOM     56  C   UNL     1       9.087   3.931  -1.585  0.00  0.00    +0.136 C 
ENDBRANCH  53  54
ENDBRANCH  21  53
TORSDOF 14
ENDMDL
