MODEL 1
REMARK minimizedAffinity -6.72018051
REMARK minimizedRMSD -1
REMARK  26 active torsions:
REMARK  status: ('A' for Active; 'I' for Inactive)
REMARK    1  A    between atoms: C2_2  and  C3_3 
REMARK    2  A    between atoms: C3_3  and  C4_4 
REMARK    3  A    between atoms: C4_4  and  C5_5 
REMARK    4  A    between atoms: C5_5  and  O1_6 
REMARK    5  A    between atoms: O1_6  and  C6_7 
REMARK    6  A    between atoms: C9_10  and  C12_13 
REMARK    7  A    between atoms: C15_16  and  C18_19 
REMARK    8  A    between atoms: C21_22  and  C24_25 
REMARK       I    between atoms: C24_25  and  N1_27 
REMARK    9  A    between atoms: N1_27  and  C25_28 
REMARK   10  A    between atoms: C27_30  and  O17_82 
REMARK   11  A    between atoms: C28_31  and  O16_81 
REMARK   12  A    between atoms: C31_36  and  O15_80 
REMARK   13  A    between atoms: C35_42  and  C56_76 
REMARK   14  A    between atoms: C37_46  and  C48_65 
REMARK   15  A    between atoms: C41_52  and  O10_64 
REMARK   16  A    between atoms: C44_57  and  C46_61 
REMARK   17  A    between atoms: C46_61  and  O9_63 
REMARK   18  A    between atoms: C48_65  and  C49_66 
REMARK   19  A    between atoms: C48_65  and  O13_75 
REMARK   20  A    between atoms: C49_66  and  C50_67 
REMARK   21  A    between atoms: C49_66  and  O12_74 
REMARK   22  A    between atoms: C53_70  and  O11_73 
REMARK   23  A    between atoms: C56_76  and  O14_78 
REMARK   24  A    between atoms: O17_82  and  C59_83 
REMARK   25  A    between atoms: C59_83  and  C60_84 
REMARK   26  A    between atoms: C60_84  and  N8_85 
ROOT
HETATM    1  C25 UNL     1     100.270 137.465  70.839  1.00  0.00     0.179 C 
HETATM    2  C26 UNL     1      99.892 138.677  71.739  1.00  0.00     0.071 C 
HETATM    3  C27 UNL     1      99.332 138.283  73.128  1.00  0.00     0.172 C 
HETATM    4  C28 UNL     1     100.456 137.950  74.129  1.00  0.00     0.249 C 
HETATM    5  N2  UNL     1      99.884 137.499  75.400  1.00  0.00    -0.331 N 
HETATM    6  C29 UNL     1      99.425 136.154  75.592  1.00  0.00     0.245 C 
HETATM    7  O3  UNL     1      99.173 135.428  74.593  1.00  0.00    -0.271 OA
HETATM    8  C30 UNL     1      99.373 135.573  76.986  1.00  0.00     0.208 C 
HETATM    9  C31 UNL     1      98.087 134.796  77.337  1.00  0.00     0.155 C 
HETATM   10  C32 UNL     1      98.585 133.659  78.243  1.00  0.00     0.031 C 
HETATM   11  C33 UNL     1     100.031 133.403  77.817  1.00  0.00     0.134 C 
HETATM   12  N3  UNL     1     100.474 134.634  77.182  1.00  0.00    -0.334 N 
HETATM   13  C34 UNL     1     101.854 135.043  77.082  1.00  0.00     0.246 C 
HETATM   14  O4  UNL     1     102.152 136.243  77.336  1.00  0.00    -0.271 OA
HETATM   15  C35 UNL     1     102.958 134.125  76.582  1.00  0.00     0.205 C 
HETATM   16  N4  UNL     1     102.430 132.939  75.893  1.00  0.00    -0.344 N 
HETATM   17  C36 UNL     1     101.922 133.015  74.552  1.00  0.00     0.243 C 
HETATM   18  O5  UNL     1     101.634 134.140  74.054  1.00  0.00    -0.271 OA
HETATM   19  C37 UNL     1     101.731 131.761  73.728  1.00  0.00     0.208 C 
HETATM   20  N5  UNL     1     101.805 132.108  72.304  1.00  0.00    -0.344 N 
HETATM   21  C38 UNL     1     102.986 131.922  71.508  1.00  0.00     0.241 C 
HETATM   22  O6  UNL     1     104.033 131.451  72.028  1.00  0.00    -0.271 OA
HETATM   23  C39 UNL     1     102.994 132.282  70.041  1.00  0.00     0.181 C 
HETATM   24  C40 UNL     1     101.917 131.525  69.260  1.00  0.00     0.068 C 
HETATM   25  C41 UNL     1     100.774 132.524  69.053  1.00  0.00     0.138 C 
HETATM   26  C42 UNL     1     101.387 133.917  69.247  1.00  0.00     0.158 C 
HETATM   27  N6  UNL     1     102.696 133.697  69.853  1.00  0.00    -0.334 N 
HETATM   28  C43 UNL     1     103.655 134.729  70.186  1.00  0.00     0.246 C 
HETATM   29  O7  UNL     1     104.564 134.467  71.020  1.00  0.00    -0.271 OA
HETATM   30  C44 UNL     1     103.679 136.095  69.525  1.00  0.00     0.205 C 
HETATM   31  N7  UNL     1     102.348 136.710  69.522  1.00  0.00    -0.344 N 
HETATM   32  C45 UNL     1     101.769 137.263  70.718  1.00  0.00     0.241 C 
HETATM   33  O8  UNL     1     102.510 137.488  71.714  1.00  0.00    -0.271 OA
HETATM   34  C58 UNL     1      97.720 132.393  78.211  1.00  0.00     0.014 C 
HETATM   35  H30 UNL     1      99.984 138.118  76.237  1.00  0.00     0.165 HD
HETATM   36  H37 UNL     1     102.577 131.991  76.311  1.00  0.00     0.163 HD
HETATM   37  H39 UNL     1     101.007 132.642  71.896  1.00  0.00     0.163 HD
HETATM   38  H47 UNL     1     101.797 136.707  68.636  1.00  0.00     0.163 HD
ENDROOT
BRANCH   1  39
HETATM   39  N1  UNL     1      99.676 137.660  69.513  1.00  0.00    -0.344 N 
HETATM   40  C24 UNL     1     100.126 138.683  68.610  1.00  0.00     0.252 C 
HETATM   41  O2  UNL     1     101.033 139.484  68.967  1.00  0.00    -0.268 OA
HETATM   42  H24 UNL     1      99.096 136.880  69.129  1.00  0.00     0.163 HD
BRANCH  40  43
HETATM   43  C21 UNL     1      99.558 138.790  67.249  1.00  0.00     0.032 A 
HETATM   44  C20 UNL     1     100.390 138.665  66.125  1.00  0.00     0.018 A 
HETATM   45  C19 UNL     1      99.854 138.717  64.836  1.00  0.00     0.013 A 
HETATM   46  C18 UNL     1      98.474 138.907  64.641  1.00  0.00    -0.026 A 
HETATM   47  C23 UNL     1      97.648 139.066  65.768  1.00  0.00     0.013 A 
HETATM   48  C22 UNL     1      98.183 139.007  67.058  1.00  0.00     0.018 A 
BRANCH  46  49
HETATM   49  C15 UNL     1      97.895 138.916  63.272  1.00  0.00    -0.026 A 
HETATM   50  C14 UNL     1      96.531 138.648  63.071  1.00  0.00     0.013 A 
HETATM   51  C13 UNL     1      95.988 138.639  61.784  1.00  0.00     0.013 A 
HETATM   52  C12 UNL     1      96.799 138.889  60.664  1.00  0.00    -0.026 A 
HETATM   53  C17 UNL     1      98.163 139.161  60.862  1.00  0.00     0.013 A 
HETATM   54  C16 UNL     1      98.705 139.177  62.151  1.00  0.00     0.013 A 
BRANCH  52  55
HETATM   55  C9  UNL     1      96.223 138.856  59.292  1.00  0.00    -0.026 A 
HETATM   56  C8  UNL     1      95.575 137.705  58.811  1.00  0.00     0.015 A 
HETATM   57  C7  UNL     1      95.030 137.683  57.524  1.00  0.00     0.037 A 
HETATM   58  C6  UNL     1      95.128 138.799  56.689  1.00  0.00     0.068 A 
HETATM   59  C11 UNL     1      95.778 139.954  57.162  1.00  0.00     0.037 A 
HETATM   60  C10 UNL     1      96.316 139.980  58.452  1.00  0.00     0.015 A 
BRANCH  58  61
HETATM   61  O1  UNL     1      94.571 138.722  55.404  1.00  0.00    -0.351 OA
BRANCH  61  62
HETATM   62  C5  UNL     1      95.313 138.870  54.196  1.00  0.00     0.175 C 
BRANCH  62  63
HETATM   63  C4  UNL     1      96.250 137.679  54.007  1.00  0.00     0.027 C 
BRANCH  63  64
HETATM   64  C3  UNL     1      97.684 138.009  54.443  1.00  0.00     0.002 C 
BRANCH  64  65
HETATM   65  C2  UNL     1      98.178 137.016  55.502  1.00  0.00    -0.004 C 
HETATM   66  C1  UNL     1      98.772 137.743  56.704  1.00  0.00     0.005 C 
ENDBRANCH  64  65
ENDBRANCH  63  64
ENDBRANCH  62  63
ENDBRANCH  61  62
ENDBRANCH  58  61
ENDBRANCH  52  55
ENDBRANCH  46  49
ENDBRANCH  40  43
ENDBRANCH   1  39
BRANCH   3  67
HETATM   67  O17 UNL     1      98.577 139.377  73.633  1.00  0.00    -0.380 OA
BRANCH  67  68
HETATM   68  C59 UNL     1      97.773 139.981  72.633  1.00  0.00     0.196 C 
BRANCH  68  69
HETATM   69  C60 UNL     1      96.343 139.386  72.659  1.00  0.00     0.262 C 
BRANCH  69  70
HETATM   70  N8  UNL     1      95.864 138.816  71.364  1.00  0.00    -0.077 N 
HETATM   71  C61 UNL     1      94.382 138.762  71.409  1.00  0.00     0.271 C 
HETATM   72  C62 UNL     1      96.260 139.673  70.219  1.00  0.00     0.271 C 
HETATM   73  C63 UNL     1      96.374 137.438  71.157  1.00  0.00     0.271 C 
ENDBRANCH  69  70
ENDBRANCH  68  69
ENDBRANCH  67  68
ENDBRANCH   3  67
BRANCH   4  74
HETATM   74  O16 UNL     1     101.237 139.096  74.362  1.00  0.00    -0.374 OA
HETATM   75  H72 UNL     1     102.127 138.946  73.947  1.00  0.00     0.212 HD
ENDBRANCH   4  74
BRANCH  30  76
HETATM   76  C46 UNL     1     104.295 136.071  68.100  1.00  0.00     0.146 C 
HETATM   77  C47 UNL     1     103.274 136.457  67.016  1.00  0.00     0.042 C 
BRANCH  76  78
HETATM   78  O9  UNL     1     105.452 136.865  68.007  1.00  0.00    -0.393 OA
HETATM   79  H52 UNL     1     105.165 137.814  67.949  1.00  0.00     0.210 HD
ENDBRANCH  76  78
ENDBRANCH  30  76
BRANCH   9  80
HETATM   80  O15 UNL     1      97.457 134.268  76.193  1.00  0.00    -0.393 OA
HETATM   81  H71 UNL     1      96.808 134.953  75.879  1.00  0.00     0.210 HD
ENDBRANCH   9  80
BRANCH  25  82
HETATM   82  O10 UNL     1     100.162 132.375  67.793  1.00  0.00    -0.394 OA
HETATM   83  H53 UNL     1     100.849 132.550  67.098  1.00  0.00     0.210 HD
ENDBRANCH  25  82
BRANCH  15  84
HETATM   84  C56 UNL     1     103.996 133.738  77.673  1.00  0.00     0.146 C 
HETATM   85  C57 UNL     1     105.455 133.737  77.195  1.00  0.00     0.042 C 
BRANCH  84  86
HETATM   86  O14 UNL     1     103.666 132.502  78.261  1.00  0.00    -0.393 OA
HETATM   87  H67 UNL     1     103.893 131.783  77.615  1.00  0.00     0.210 HD
ENDBRANCH  84  86
ENDBRANCH  15  84
BRANCH  19  88
HETATM   88  C48 UNL     1     100.374 131.082  74.054  1.00  0.00     0.183 C 
BRANCH  88  89
HETATM   89  C49 UNL     1      99.571 130.636  72.801  1.00  0.00     0.182 C 
BRANCH  89  90
HETATM   90  C50 UNL     1      98.070 130.624  73.050  1.00  0.00    -0.027 A 
HETATM   91  C51 UNL     1      97.197 131.139  72.075  1.00  0.00     0.012 A 
HETATM   92  C52 UNL     1      95.818 131.183  72.307  1.00  0.00     0.037 A 
HETATM   93  C53 UNL     1      95.291 130.715  73.516  1.00  0.00     0.065 A 
HETATM   94  C54 UNL     1      96.150 130.197  74.490  1.00  0.00     0.037 A 
HETATM   95  C55 UNL     1      97.529 130.151  74.262  1.00  0.00     0.012 A 
BRANCH  93  96
HETATM   96  O11 UNL     1      93.920 130.757  73.760  1.00  0.00    -0.361 OA
HETATM   97  H60 UNL     1      93.272 131.147  73.083  1.00  0.00     0.217 HD
ENDBRANCH  93  96
ENDBRANCH  89  90
BRANCH  89  98
HETATM   98  O12 UNL     1     100.030 129.387  72.348  1.00  0.00    -0.388 OA
HETATM   99  H61 UNL     1      99.663 129.261  71.433  1.00  0.00     0.210 HD
ENDBRANCH  89  98
ENDBRANCH  88  89
BRANCH  88 100
HETATM  100  O13 UNL     1     100.604 129.959  74.866  1.00  0.00    -0.390 OA
HETATM  101  H62 UNL     1      99.750 129.756  75.327  1.00  0.00     0.210 HD
ENDBRANCH  88 100
ENDBRANCH  19  88
TORSDOF 26
ENDMDL
MODEL 2
REMARK minimizedAffinity -6.48987627
REMARK minimizedRMSD -1
REMARK  26 active torsions:
REMARK  status: ('A' for Active; 'I' for Inactive)
REMARK    1  A    between atoms: C2_2  and  C3_3 
REMARK    2  A    between atoms: C3_3  and  C4_4 
REMARK    3  A    between atoms: C4_4  and  C5_5 
REMARK    4  A    between atoms: C5_5  and  O1_6 
REMARK    5  A    between atoms: O1_6  and  C6_7 
REMARK    6  A    between atoms: C9_10  and  C12_13 
REMARK    7  A    between atoms: C15_16  and  C18_19 
REMARK    8  A    between atoms: C21_22  and  C24_25 
REMARK       I    between atoms: C24_25  and  N1_27 
REMARK    9  A    between atoms: N1_27  and  C25_28 
REMARK   10  A    between atoms: C27_30  and  O17_82 
REMARK   11  A    between atoms: C28_31  and  O16_81 
REMARK   12  A    between atoms: C31_36  and  O15_80 
REMARK   13  A    between atoms: C35_42  and  C56_76 
REMARK   14  A    between atoms: C37_46  and  C48_65 
REMARK   15  A    between atoms: C41_52  and  O10_64 
REMARK   16  A    between atoms: C44_57  and  C46_61 
REMARK   17  A    between atoms: C46_61  and  O9_63 
REMARK   18  A    between atoms: C48_65  and  C49_66 
REMARK   19  A    between atoms: C48_65  and  O13_75 
REMARK   20  A    between atoms: C49_66  and  C50_67 
REMARK   21  A    between atoms: C49_66  and  O12_74 
REMARK   22  A    between atoms: C53_70  and  O11_73 
REMARK   23  A    between atoms: C56_76  and  O14_78 
REMARK   24  A    between atoms: O17_82  and  C59_83 
REMARK   25  A    between atoms: C59_83  and  C60_84 
REMARK   26  A    between atoms: C60_84  and  N8_85 
ROOT
HETATM    1  C25 UNL     1      93.392 133.624  75.130  1.00  0.00     0.179 C 
HETATM    2  C26 UNL     1      93.335 132.222  75.804  1.00  0.00     0.071 C 
HETATM    3  C27 UNL     1      94.530 131.302  75.455  1.00  0.00     0.172 C 
HETATM    4  C28 UNL     1      95.769 131.614  76.318  1.00  0.00     0.249 C 
HETATM    5  N2  UNL     1      96.901 130.785  75.898  1.00  0.00    -0.331 N 
HETATM    6  C29 UNL     1      97.708 131.122  74.761  1.00  0.00     0.245 C 
HETATM    7  O3  UNL     1      97.269 131.924  73.894  1.00  0.00    -0.271 OA
HETATM    8  C30 UNL     1      99.130 130.615  74.678  1.00  0.00     0.208 C 
HETATM    9  C31 UNL     1      99.553 130.039  73.309  1.00  0.00     0.155 C 
HETATM   10  C32 UNL     1     101.029 130.453  73.182  1.00  0.00     0.031 C 
HETATM   11  C33 UNL     1     101.165 131.730  74.011  1.00  0.00     0.134 C 
HETATM   12  N3  UNL     1     100.067 131.697  74.964  1.00  0.00    -0.334 N 
HETATM   13  C34 UNL     1     100.072 132.389  76.230  1.00  0.00     0.246 C 
HETATM   14  O4  UNL     1      99.663 131.779  77.257  1.00  0.00    -0.271 OA
HETATM   15  C35 UNL     1     100.447 133.855  76.374  1.00  0.00     0.205 C 
HETATM   16  N4  UNL     1     100.451 134.561  75.085  1.00  0.00    -0.344 N 
HETATM   17  C36 UNL     1      99.228 134.963  74.447  1.00  0.00     0.243 C 
HETATM   18  O5  UNL     1      98.133 134.455  74.816  1.00  0.00    -0.271 OA
HETATM   19  C37 UNL     1      99.241 135.990  73.338  1.00  0.00     0.208 C 
HETATM   20  N5  UNL     1      97.933 136.654  73.284  1.00  0.00    -0.344 N 
HETATM   21  C38 UNL     1      97.677 137.939  73.874  1.00  0.00     0.241 C 
HETATM   22  O6  UNL     1      98.595 138.550  74.485  1.00  0.00    -0.271 OA
HETATM   23  C39 UNL     1      96.313 138.579  73.771  1.00  0.00     0.181 C 
HETATM   24  C40 UNL     1      95.875 138.762  72.316  1.00  0.00     0.068 C 
HETATM   25  C41 UNL     1      94.885 137.628  72.032  1.00  0.00     0.138 C 
HETATM   26  C42 UNL     1      94.392 137.143  73.401  1.00  0.00     0.158 C 
HETATM   27  N6  UNL     1      95.296 137.732  74.384  1.00  0.00    -0.334 N 
HETATM   28  C43 UNL     1      95.196 137.579  75.820  1.00  0.00     0.246 C 
HETATM   29  O7  UNL     1      96.212 137.814  76.529  1.00  0.00    -0.271 OA
HETATM   30  C44 UNL     1      93.904 137.227  76.537  1.00  0.00     0.205 C 
HETATM   31  N7  UNL     1      93.251 136.069  75.920  1.00  0.00    -0.344 N 
HETATM   32  C45 UNL     1      93.754 134.733  76.101  1.00  0.00     0.241 C 
HETATM   33  O8  UNL     1      94.585 134.507  77.022  1.00  0.00    -0.271 OA
HETATM   34  C58 UNL     1     101.521 130.621  71.740  1.00  0.00     0.014 C 
HETATM   35  H30 UNL     1      97.237 130.038  76.547  1.00  0.00     0.165 HD
HETATM   36  H37 UNL     1     101.351 134.929  74.701  1.00  0.00     0.163 HD
HETATM   37  H39 UNL     1      97.125 136.100  72.926  1.00  0.00     0.163 HD
HETATM   38  H47 UNL     1      92.424 136.230  75.304  1.00  0.00     0.163 HD
ENDROOT
BRANCH   1  39
HETATM   39  N1  UNL     1      92.096 133.899  74.505  1.00  0.00    -0.344 N 
HETATM   40  C24 UNL     1      91.951 134.103  73.090  1.00  0.00     0.252 C 
HETATM   41  O2  UNL     1      92.970 134.094  72.345  1.00  0.00    -0.268 OA
HETATM   42  H24 UNL     1      91.240 133.688  75.065  1.00  0.00     0.163 HD
BRANCH  40  43
HETATM   43  C21 UNL     1      90.613 134.292  72.489  1.00  0.00     0.032 A 
HETATM   44  C20 UNL     1      90.419 135.256  71.487  1.00  0.00     0.018 A 
HETATM   45  C19 UNL     1      89.170 135.408  70.881  1.00  0.00     0.013 A 
HETATM   46  C18 UNL     1      88.081 134.607  71.272  1.00  0.00    -0.026 A 
HETATM   47  C23 UNL     1      88.271 133.665  72.300  1.00  0.00     0.013 A 
HETATM   48  C22 UNL     1      89.522 133.508  72.901  1.00  0.00     0.018 A 
BRANCH  46  49
HETATM   49  C15 UNL     1      86.763 134.735  70.597  1.00  0.00    -0.026 A 
HETATM   50  C14 UNL     1      85.581 134.370  71.263  1.00  0.00     0.013 A 
HETATM   51  C13 UNL     1      84.343 134.473  70.624  1.00  0.00     0.013 A 
HETATM   52  C12 UNL     1      84.257 134.935  69.300  1.00  0.00    -0.026 A 
HETATM   53  C17 UNL     1      85.438 135.303  68.633  1.00  0.00     0.013 A 
HETATM   54  C16 UNL     1      86.677 135.207  69.275  1.00  0.00     0.013 A 
BRANCH  52  55
HETATM   55  C9  UNL     1      82.939 135.022  68.614  1.00  0.00    -0.026 A 
HETATM   56  C8  UNL     1      82.029 133.952  68.667  1.00  0.00     0.015 A 
HETATM   57  C7  UNL     1      80.789 134.044  68.027  1.00  0.00     0.037 A 
HETATM   58  C6  UNL     1      80.437 135.193  67.314  1.00  0.00     0.068 A 
HETATM   59  C11 UNL     1      81.345 136.267  67.255  1.00  0.00     0.037 A 
HETATM   60  C10 UNL     1      82.581 136.181  67.901  1.00  0.00     0.015 A 
BRANCH  58  61
HETATM   61  O1  UNL     1      79.185 135.231  66.684  1.00  0.00    -0.351 OA
BRANCH  61  62
HETATM   62  C5  UNL     1      78.797 134.370  65.615  1.00  0.00     0.175 C 
BRANCH  62  63
HETATM   63  C4  UNL     1      79.811 134.459  64.476  1.00  0.00     0.027 C 
BRANCH  63  64
HETATM   64  C3  UNL     1      80.620 133.163  64.334  1.00  0.00     0.002 C 
BRANCH  64  65
HETATM   65  C2  UNL     1      82.044 133.454  63.846  1.00  0.00    -0.004 C 
HETATM   66  C1  UNL     1      82.993 133.678  65.018  1.00  0.00     0.005 C 
ENDBRANCH  64  65
ENDBRANCH  63  64
ENDBRANCH  62  63
ENDBRANCH  61  62
ENDBRANCH  58  61
ENDBRANCH  52  55
ENDBRANCH  46  49
ENDBRANCH  40  43
ENDBRANCH   1  39
BRANCH   3  67
HETATM   67  O17 UNL     1      94.140 129.954  75.683  1.00  0.00    -0.380 OA
BRANCH  67  68
HETATM   68  C59 UNL     1      93.557 129.363  74.534  1.00  0.00     0.196 C 
BRANCH  68  69
HETATM   69  C60 UNL     1      92.051 129.095  74.770  1.00  0.00     0.262 C 
BRANCH  69  70
HETATM   70  N8  UNL     1      91.142 129.533  73.667  1.00  0.00    -0.077 N 
HETATM   71  C61 UNL     1      89.970 130.204  74.281  1.00  0.00     0.271 C 
HETATM   72  C62 UNL     1      91.814 130.505  72.769  1.00  0.00     0.271 C 
HETATM   73  C63 UNL     1      90.656 128.376  72.876  1.00  0.00     0.271 C 
ENDBRANCH  69  70
ENDBRANCH  68  69
ENDBRANCH  67  68
ENDBRANCH   3  67
BRANCH   4  74
HETATM   74  O16 UNL     1      95.484 131.346  77.669  1.00  0.00    -0.374 OA
HETATM   75  H72 UNL     1      95.443 132.215  78.148  1.00  0.00     0.212 HD
ENDBRANCH   4  74
BRANCH  30  76
HETATM   76  C46 UNL     1      92.930 138.429  76.660  1.00  0.00     0.146 C 
HETATM   77  C47 UNL     1      91.841 138.192  77.722  1.00  0.00     0.042 C 
BRANCH  76  78
HETATM   78  O9  UNL     1      93.605 139.640  76.895  1.00  0.00    -0.393 OA
HETATM   79  H52 UNL     1      93.871 139.659  77.852  1.00  0.00     0.210 HD
ENDBRANCH  76  78
ENDBRANCH  30  76
BRANCH   9  80
HETATM   80  O15 UNL     1      98.802 130.582  72.249  1.00  0.00    -0.393 OA
HETATM   81  H71 UNL     1      98.017 129.985  72.117  1.00  0.00     0.210 HD
ENDBRANCH   9  80
BRANCH  25  82
HETATM   82  O10 UNL     1      93.832 138.042  71.195  1.00  0.00    -0.394 OA
HETATM   83  H53 UNL     1      93.339 138.767  71.661  1.00  0.00     0.210 HD
ENDBRANCH  25  82
BRANCH  15  84
HETATM   84  C56 UNL     1     101.768 134.093  77.160  1.00  0.00     0.146 C 
HETATM   85  C57 UNL     1     102.912 134.683  76.324  1.00  0.00     0.042 C 
BRANCH  84  86
HETATM   86  O14 UNL     1     102.182 132.913  77.807  1.00  0.00    -0.393 OA
HETATM   87  H67 UNL     1     102.557 132.301  77.121  1.00  0.00     0.210 HD
ENDBRANCH  84  86
ENDBRANCH  15  84
BRANCH  19  88
HETATM   88  C48 UNL     1      99.573 135.332  71.972  1.00  0.00     0.183 C 
BRANCH  88  89
HETATM   89  C49 UNL     1     101.072 135.422  71.572  1.00  0.00     0.182 C 
BRANCH  89  90
HETATM   90  C50 UNL     1     101.268 135.435  70.063  1.00  0.00    -0.027 A 
HETATM   91  C51 UNL     1     101.522 134.230  69.383  1.00  0.00     0.012 A 
HETATM   92  C52 UNL     1     101.756 134.227  68.003  1.00  0.00     0.037 A 
HETATM   93  C53 UNL     1     101.741 135.428  67.284  1.00  0.00     0.065 A 
HETATM   94  C54 UNL     1     101.486 136.630  67.950  1.00  0.00     0.037 A 
HETATM   95  C55 UNL     1     101.252 136.637  69.328  1.00  0.00     0.012 A 
BRANCH  93  96
HETATM   96  O11 UNL     1     101.977 135.438  65.911  1.00  0.00    -0.361 OA
HETATM   97  H60 UNL     1     102.186 134.587  65.401  1.00  0.00     0.217 HD
ENDBRANCH  93  96
ENDBRANCH  89  90
BRANCH  89  98
HETATM   98  O12 UNL     1     101.801 134.386  72.180  1.00  0.00    -0.388 OA
HETATM   99  H61 UNL     1     102.762 134.620  72.092  1.00  0.00     0.210 HD
ENDBRANCH  89  98
ENDBRANCH  88  89
BRANCH  88 100
HETATM  100  O13 UNL     1      99.197 133.979  72.008  1.00  0.00    -0.390 OA
HETATM  101  H62 UNL     1      99.096 133.681  71.068  1.00  0.00     0.210 HD
ENDBRANCH  88 100
ENDBRANCH  19  88
TORSDOF 26
ENDMDL
MODEL 3
REMARK minimizedAffinity -6.4005518
REMARK minimizedRMSD -1
REMARK  26 active torsions:
REMARK  status: ('A' for Active; 'I' for Inactive)
REMARK    1  A    between atoms: C2_2  and  C3_3 
REMARK    2  A    between atoms: C3_3  and  C4_4 
REMARK    3  A    between atoms: C4_4  and  C5_5 
REMARK    4  A    between atoms: C5_5  and  O1_6 
REMARK    5  A    between atoms: O1_6  and  C6_7 
REMARK    6  A    between atoms: C9_10  and  C12_13 
REMARK    7  A    between atoms: C15_16  and  C18_19 
REMARK    8  A    between atoms: C21_22  and  C24_25 
REMARK       I    between atoms: C24_25  and  N1_27 
REMARK    9  A    between atoms: N1_27  and  C25_28 
REMARK   10  A    between atoms: C27_30  and  O17_82 
REMARK   11  A    between atoms: C28_31  and  O16_81 
REMARK   12  A    between atoms: C31_36  and  O15_80 
REMARK   13  A    between atoms: C35_42  and  C56_76 
REMARK   14  A    between atoms: C37_46  and  C48_65 
REMARK   15  A    between atoms: C41_52  and  O10_64 
REMARK   16  A    between atoms: C44_57  and  C46_61 
REMARK   17  A    between atoms: C46_61  and  O9_63 
REMARK   18  A    between atoms: C48_65  and  C49_66 
REMARK   19  A    between atoms: C48_65  and  O13_75 
REMARK   20  A    between atoms: C49_66  and  C50_67 
REMARK   21  A    between atoms: C49_66  and  O12_74 
REMARK   22  A    between atoms: C53_70  and  O11_73 
REMARK   23  A    between atoms: C56_76  and  O14_78 
REMARK   24  A    between atoms: O17_82  and  C59_83 
REMARK   25  A    between atoms: C59_83  and  C60_84 
REMARK   26  A    between atoms: C60_84  and  N8_85 
ROOT
HETATM    1  C25 UNL     1     100.613 137.844  70.018  1.00  0.00     0.179 C 
HETATM    2  C26 UNL     1     100.289 139.225  70.659  1.00  0.00     0.071 C 
HETATM    3  C27 UNL     1      99.581 139.135  72.033  1.00  0.00     0.172 C 
HETATM    4  C28 UNL     1     100.581 138.888  73.181  1.00  0.00     0.249 C 
HETATM    5  N2  UNL     1      99.865 138.723  74.448  1.00  0.00    -0.331 N 
HETATM    6  C29 UNL     1      99.257 137.477  74.819  1.00  0.00     0.245 C 
HETATM    7  O3  UNL     1      99.014 136.610  73.937  1.00  0.00    -0.271 OA
HETATM    8  C30 UNL     1      99.033 137.161  76.280  1.00  0.00     0.208 C 
HETATM    9  C31 UNL     1      97.650 136.573  76.630  1.00  0.00     0.155 C 
HETATM   10  C32 UNL     1      97.954 135.576  77.760  1.00  0.00     0.031 C 
HETATM   11  C33 UNL     1      99.396 135.125  77.526  1.00  0.00     0.134 C 
HETATM   12  N3  UNL     1     100.012 136.180  76.738  1.00  0.00    -0.334 N 
HETATM   13  C34 UNL     1     101.431 136.443  76.705  1.00  0.00     0.246 C 
HETATM   14  O4  UNL     1     101.829 137.639  76.781  1.00  0.00    -0.271 OA
HETATM   15  C35 UNL     1     102.472 135.359  76.479  1.00  0.00     0.205 C 
HETATM   16  N4  UNL     1     101.883 134.119  75.952  1.00  0.00    -0.344 N 
HETATM   17  C36 UNL     1     101.496 134.000  74.574  1.00  0.00     0.243 C 
HETATM   18  O5  UNL     1     101.365 135.038  73.868  1.00  0.00    -0.271 OA
HETATM   19  C37 UNL     1     101.245 132.641  73.960  1.00  0.00     0.208 C 
HETATM   20  N5  UNL     1     101.469 132.720  72.512  1.00  0.00    -0.344 N 
HETATM   21  C38 UNL     1     102.686 132.294  71.878  1.00  0.00     0.241 C 
HETATM   22  O6  UNL     1     103.634 131.835  72.570  1.00  0.00    -0.271 OA
HETATM   23  C39 UNL     1     102.849 132.385  70.379  1.00  0.00     0.181 C 
HETATM   24  C40 UNL     1     101.767 131.598  69.636  1.00  0.00     0.068 C 
HETATM   25  C41 UNL     1     100.753 132.640  69.153  1.00  0.00     0.138 C 
HETATM   26  C42 UNL     1     101.487 133.986  69.167  1.00  0.00     0.158 C 
HETATM   27  N6  UNL     1     102.713 133.765  69.926  1.00  0.00    -0.334 N 
HETATM   28  C43 UNL     1     103.742 134.753  70.172  1.00  0.00     0.246 C 
HETATM   29  O7  UNL     1     104.550 134.566  71.122  1.00  0.00    -0.271 OA
HETATM   30  C44 UNL     1     103.959 135.973  69.294  1.00  0.00     0.205 C 
HETATM   31  N7  UNL     1     102.703 136.689  69.057  1.00  0.00    -0.344 N 
HETATM   32  C45 UNL     1     102.089 137.495  70.080  1.00  0.00     0.241 C 
HETATM   33  O8  UNL     1     102.765 137.828  71.090  1.00  0.00    -0.271 OA
HETATM   34  C58 UNL     1      96.970 134.404  77.858  1.00  0.00     0.014 C 
HETATM   35  H30 UNL     1      99.960 139.469  75.174  1.00  0.00     0.165 HD
HETATM   36  H37 UNL     1     101.899 133.253  76.537  1.00  0.00     0.163 HD
HETATM   37  H39 UNL     1     100.765 133.241  71.943  1.00  0.00     0.163 HD
HETATM   38  H47 UNL     1     102.228 136.577  68.135  1.00  0.00     0.163 HD
ENDROOT
BRANCH   1  39
HETATM   39  N1  UNL     1     100.151 137.851  68.627  1.00  0.00    -0.344 N 
HETATM   40  C24 UNL     1     100.756 138.677  67.619  1.00  0.00     0.252 C 
HETATM   41  O2  UNL     1     101.690 139.466  67.928  1.00  0.00    -0.268 OA
HETATM   42  H24 UNL     1      99.547 137.056  68.320  1.00  0.00     0.163 HD
BRANCH  40  43
HETATM   43  C21 UNL     1     100.316 138.589  66.209  1.00  0.00     0.032 A 
HETATM   44  C20 UNL     1     101.167 138.039  65.237  1.00  0.00     0.018 A 
HETATM   45  C19 UNL     1     100.742 137.909  63.913  1.00  0.00     0.013 A 
HETATM   46  C18 UNL     1      99.458 138.337  63.528  1.00  0.00    -0.026 A 
HETATM   47  C23 UNL     1      98.620 138.918  64.497  1.00  0.00     0.013 A 
HETATM   48  C22 UNL     1      99.043 139.042  65.823  1.00  0.00     0.018 A 
BRANCH  46  49
HETATM   49  C15 UNL     1      98.986 138.157  62.130  1.00  0.00    -0.026 A 
HETATM   50  C14 UNL     1      99.703 137.346  61.233  1.00  0.00     0.013 A 
HETATM   51  C13 UNL     1      99.271 137.189  59.914  1.00  0.00     0.013 A 
HETATM   52  C12 UNL     1      98.116 137.846  59.455  1.00  0.00    -0.026 A 
HETATM   53  C17 UNL     1      97.396 138.654  60.352  1.00  0.00     0.013 A 
HETATM   54  C16 UNL     1      97.824 138.805  61.675  1.00  0.00     0.013 A 
BRANCH  52  55
HETATM   55  C9  UNL     1      97.671 137.694  58.044  1.00  0.00    -0.026 A 
HETATM   56  C8  UNL     1      98.391 138.291  56.995  1.00  0.00     0.015 A 
HETATM   57  C7  UNL     1      97.971 138.139  55.670  1.00  0.00     0.037 A 
HETATM   58  C6  UNL     1      96.824 137.402  55.365  1.00  0.00     0.068 A 
HETATM   59  C11 UNL     1      96.096 136.804  56.410  1.00  0.00     0.037 A 
HETATM   60  C10 UNL     1      96.519 136.948  57.735  1.00  0.00     0.015 A 
BRANCH  58  61
HETATM   61  O1  UNL     1      96.442 137.287  54.020  1.00  0.00    -0.351 OA
BRANCH  61  62
HETATM   62  C5  UNL     1      97.179 136.569  53.034  1.00  0.00     0.175 C 
BRANCH  62  63
HETATM   63  C4  UNL     1      97.380 135.121  53.480  1.00  0.00     0.027 C 
BRANCH  63  64
HETATM   64  C3  UNL     1      98.848 134.829  53.814  1.00  0.00     0.002 C 
BRANCH  64  65
HETATM   65  C2  UNL     1      99.027 134.554  55.312  1.00  0.00    -0.004 C 
HETATM   66  C1  UNL     1     100.424 134.021  55.611  1.00  0.00     0.005 C 
ENDBRANCH  64  65
ENDBRANCH  63  64
ENDBRANCH  62  63
ENDBRANCH  61  62
ENDBRANCH  58  61
ENDBRANCH  52  55
ENDBRANCH  46  49
ENDBRANCH  40  43
ENDBRANCH   1  39
BRANCH   3  67
HETATM   67  O17 UNL     1      98.904 140.362  72.269  1.00  0.00    -0.380 OA
BRANCH  67  68
HETATM   68  C59 UNL     1      97.719 140.477  71.499  1.00  0.00     0.196 C 
BRANCH  68  69
HETATM   69  C60 UNL     1      97.796 141.715  70.572  1.00  0.00     0.262 C 
BRANCH  69  70
HETATM   70  N8  UNL     1      97.474 141.460  69.136  1.00  0.00    -0.077 N 
HETATM   71  C61 UNL     1      98.676 141.793  68.332  1.00  0.00     0.271 C 
HETATM   72  C62 UNL     1      97.143 140.032  68.903  1.00  0.00     0.271 C 
HETATM   73  C63 UNL     1      96.353 142.314  68.673  1.00  0.00     0.271 C 
ENDBRANCH  69  70
ENDBRANCH  68  69
ENDBRANCH  67  68
ENDBRANCH   3  67
BRANCH   4  74
HETATM   74  O16 UNL     1     101.454 139.986  73.291  1.00  0.00    -0.374 OA
HETATM   75  H72 UNL     1     102.354 139.688  72.996  1.00  0.00     0.212 HD
ENDBRANCH   4  74
BRANCH  30  76
HETATM   76  C46 UNL     1     104.683 135.642  67.961  1.00  0.00     0.146 C 
HETATM   77  C47 UNL     1     104.626 136.809  66.960  1.00  0.00     0.042 C 
BRANCH  76  78
HETATM   78  O9  UNL     1     106.009 135.219  68.166  1.00  0.00    -0.393 OA
HETATM   79  H52 UNL     1     106.559 136.025  68.353  1.00  0.00     0.210 HD
ENDBRANCH  76  78
ENDBRANCH  30  76
BRANCH   9  80
HETATM   80  O15 UNL     1      97.064 135.906  75.536  1.00  0.00    -0.393 OA
HETATM   81  H71 UNL     1      96.516 136.578  75.049  1.00  0.00     0.210 HD
ENDBRANCH   9  80
BRANCH  25  82
HETATM   82  O10 UNL     1     100.233 132.322  67.883  1.00  0.00    -0.394 OA
HETATM   83  H53 UNL     1     100.988 132.310  67.239  1.00  0.00     0.210 HD
ENDBRANCH  25  82
BRANCH  15  84
HETATM   84  C56 UNL     1     103.374 135.084  77.715  1.00  0.00     0.146 C 
HETATM   85  C57 UNL     1     104.880 135.226  77.452  1.00  0.00     0.042 C 
BRANCH  84  86
HETATM   86  O14 UNL     1     103.084 133.825  78.273  1.00  0.00    -0.393 OA
HETATM   87  H67 UNL     1     103.473 133.129  77.682  1.00  0.00     0.210 HD
ENDBRANCH  84  86
ENDBRANCH  15  84
BRANCH  19  88
HETATM   88  C48 UNL     1      99.804 132.150  74.263  1.00  0.00     0.183 C 
BRANCH  88  89
HETATM   89  C49 UNL     1      99.328 130.981  73.356  1.00  0.00     0.182 C 
BRANCH  89  90
HETATM   90  C50 UNL     1      97.975 131.258  72.718  1.00  0.00    -0.027 A 
HETATM   91  C51 UNL     1      96.797 130.893  73.396  1.00  0.00     0.012 A 
HETATM   92  C52 UNL     1      95.545 131.092  72.804  1.00  0.00     0.037 A 
HETATM   93  C53 UNL     1      95.452 131.657  71.526  1.00  0.00     0.065 A 
HETATM   94  C54 UNL     1      96.616 132.026  70.847  1.00  0.00     0.037 A 
HETATM   95  C55 UNL     1      97.869 131.829  71.435  1.00  0.00     0.012 A 
BRANCH  93  96
HETATM   96  O11 UNL     1      94.211 131.856  70.925  1.00  0.00    -0.361 OA
HETATM   97  H60 UNL     1      93.348 131.580  71.382  1.00  0.00     0.217 HD
ENDBRANCH  93  96
ENDBRANCH  89  90
BRANCH  89  98
HETATM   98  O12 UNL     1      99.323 129.776  74.079  1.00  0.00    -0.388 OA
HETATM   99  H61 UNL     1      99.247 129.042  73.414  1.00  0.00     0.210 HD
ENDBRANCH  89  98
ENDBRANCH  88  89
BRANCH  88 100
HETATM  100  O13 UNL     1      99.728 131.740  75.604  1.00  0.00    -0.390 OA
HETATM  101  H62 UNL     1      98.771 131.762  75.860  1.00  0.00     0.210 HD
ENDBRANCH  88 100
ENDBRANCH  19  88
TORSDOF 26
ENDMDL
