MODEL 1
REMARK VINA RESULT:     0.000      0.000      0.000
REMARK INTER + INTRA:          -3.764
REMARK INTER:                   0.000
REMARK INTRA:                  -3.764
REMARK UNBOUND:                -3.764
REMARK  Name = 
REMARK  22 active torsions:
REMARK  status: ('A' for Active; 'I' for Inactive)
REMARK    1  A    between atoms: C_1  and  C_2
REMARK    2  A    between atoms: C_2  and  C_3
REMARK    3  A    between atoms: C_2  and  C_4
REMARK    4  A    between atoms: C_4  and  C_5
REMARK    5  A    between atoms: C_4  and  C_6
REMARK    6  A    between atoms: C_6  and  C_7
REMARK    7  A    between atoms: C_10  and  C_11
REMARK    8  A    between atoms: C_16  and  C_17
REMARK    9  A    between atoms: C_23  and  N_24
REMARK   10  A    between atoms: C_28  and  C_29
REMARK   11  A    between atoms: C_35  and  O_36
REMARK   12  A    between atoms: O_36  and  C_37
REMARK   13  A    between atoms: C_37  and  C_38
REMARK   14  A    between atoms: C_38  and  C_39
REMARK   15  A    between atoms: C_38  and  N_40
REMARK   16  A    between atoms: C_38  and  C_41
REMARK   17  A    between atoms: C_41  and  C_42
REMARK   18  A    between atoms: C_41  and  C_43
REMARK   19  A    between atoms: C_41  and  C_44
REMARK   20  A    between atoms: C_48  and  C_49
REMARK   21  A    between atoms: C_50  and  C_51
REMARK   22  A    between atoms: C_51  and  O_53
REMARK                            x       y       z     vdW  Elec       q    Type
REMARK                         _______ _______ _______ _____ _____    ______ ____
ROOT
ATOM      1  C   UNL     1       2.562  -7.104  -7.066  0.00  0.00    +0.000 C 
ATOM      2  C   UNL     1       2.523  -8.438  -6.255  0.00  0.00    +0.000 C 
ATOM      3  C   UNL     1       4.046  -6.548  -6.779  0.00  0.00    +0.000 C 
ATOM      4  C   UNL     1       4.285  -5.114  -6.148  0.00  0.00    +0.000 C 
ATOM      5  C   UNL     1       3.040  -4.180  -6.296  0.00  0.00    +0.000 C 
ATOM      6  C   UNL     1       3.075  -3.896  -7.812  0.00  0.00    +0.000 C 
ATOM      7  C   UNL     1       3.105  -2.753  -5.638  0.00  0.00    +0.000 C 
ATOM      8  C   UNL     1       2.803  -1.505  -6.516  0.00  0.00    +0.000 C 
ATOM      9  C   UNL     1       3.151  -0.200  -5.788  0.00  0.00    +0.000 C 
ATOM     10  C   UNL     1       3.564  -0.436  -4.322  0.00  0.00    +0.000 C 
ATOM     11  C   UNL     1       3.860   0.800  -3.491  0.00  0.00    +0.000 C 
ATOM     12  C   UNL     1       4.691   1.828  -4.289  0.00  0.00    +0.000 C 
ATOM     13  C   UNL     1       2.526   1.469  -3.116  0.00  0.00    +0.000 C 
ATOM     14  O   UNL     1       1.749   0.605  -2.304  0.00  0.00    +0.000 OA
ATOM     15  C   UNL     1       1.368  -0.567  -3.011  0.00  0.00    +0.000 C 
ATOM     16  C   UNL     1       2.597  -1.369  -3.531  0.00  0.00    +0.000 C 
ATOM     17  C   UNL     1       3.285  -2.006  -2.322  0.00  0.00    +0.000 C 
ATOM     18  C   UNL     1       4.216  -1.060  -1.583  0.00  0.00    +0.000 C 
ATOM     19  C   UNL     1       4.686   0.280  -2.260  0.00  0.00    +0.000 C 
ATOM     20  C   UNL     1       2.194  -2.483  -4.450  0.00  0.00    +0.000 C 
ATOM     21  C   UNL     1       1.006  -3.085  -4.351  0.00  0.00    +0.000 C 
ATOM     22  C   UNL     1       0.645  -4.090  -5.358  0.00  0.00    +0.000 C 
ATOM     23  C   UNL     1       1.868  -5.008  -5.630  0.00  0.00    +0.000 C 
ATOM     24  C   UNL     1       2.291  -5.619  -4.235  0.00  0.00    +0.000 C 
ATOM     25  C   UNL     1       1.452  -6.102  -6.617  0.00  0.00    +0.000 C 
ENDROOT
BRANCH  18  26
ATOM     26  N   UNL     1       5.312  -1.846  -0.962  0.00  0.00    +0.000 N 
ATOM     27  N   UNL     1       5.128  -2.215   0.337  0.00  0.00    +0.000 NA
ATOM     28  C   UNL     1       6.307  -2.748   0.638  0.00  0.00    +0.000 A 
ATOM     29  N   UNL     1       7.214  -2.810  -0.383  0.00  0.00    +0.000 NA
ATOM     30  C   UNL     1       6.545  -2.311  -1.417  0.00  0.00    +0.000 A 
BRANCH  30  31
ATOM     31  C   UNL     1       7.131  -2.320  -2.773  0.00  0.00    +0.000 A 
ATOM     32  C   UNL     1       6.455  -2.882  -3.859  0.00  0.00    +0.000 A 
ATOM     33  C   UNL     1       7.046  -2.859  -5.127  0.00  0.00    +0.000 A 
ATOM     34  N   UNL     1       8.272  -2.358  -5.382  0.00  0.00    +0.000 NA
ATOM     35  C   UNL     1       8.882  -1.779  -4.349  0.00  0.00    +0.000 A 
ATOM     36  C   UNL     1       8.312  -1.688  -3.090  0.00  0.00    +0.000 A 
ENDBRANCH  30  31
ENDBRANCH  18  26
BRANCH   1  37
ATOM     37  C   UNL     1       2.338  -7.507  -8.641  0.00  0.00    +0.000 C 
ATOM     38  C   UNL     1       1.539  -8.794  -8.951  0.00  0.00    +0.000 C 
BRANCH  37  40
ATOM     39  C   UNL     1       3.832  -8.888 -10.312  0.00  0.00    +0.000 C 
ATOM     40  C   UNL     1       3.588  -7.559  -9.605  0.00  0.00    +0.000 C 
ATOM     41  C   UNL     1       3.783  -6.351 -10.552  0.00  0.00    +0.000 C 
ENDBRANCH  37  40
ENDBRANCH   1  37
BRANCH  25  42
ATOM     42  C   UNL     1       0.069  -6.608  -6.221  0.00  0.00    +0.000 C 
ATOM     43  O   UNL     1      -0.186  -7.215  -5.190  0.00  0.00    +0.000 OA
BRANCH  42  44
ATOM     44  O   UNL     1      -0.866  -6.538  -7.178  0.00  0.00    +0.000 OA
ATOM     45  H   UNL     1      -1.698  -6.674  -6.676  0.00  0.00    +0.000 HD
ENDBRANCH  42  44
ENDBRANCH  25  42
BRANCH  19  46
ATOM     46  O   UNL     1       4.704   1.377  -1.343  0.00  0.00    +0.000 OA
BRANCH  46  47
ATOM     47  C   UNL     1       5.974   1.617  -0.760  0.00  0.00    +0.000 C 
BRANCH  47  48
ATOM     48  C   UNL     1       6.387   3.092  -0.892  0.00  0.00    +0.000 C 
ATOM     49  C   UNL     1       6.704   3.532   0.555  0.00  0.00    +0.000 C 
BRANCH  48  50
ATOM     50  C   UNL     1       7.585   3.304  -1.906  0.00  0.00    +0.000 C 
ATOM     51  C   UNL     1       7.186   4.307  -3.009  0.00  0.00    +0.000 C 
ATOM     52  C   UNL     1       8.838   3.865  -1.189  0.00  0.00    +0.000 C 
ATOM     53  C   UNL     1       8.026   2.001  -2.615  0.00  0.00    +0.000 C 
ENDBRANCH  48  50
BRANCH  48  54
ATOM     54  N   UNL     1       5.170   3.825  -1.298  0.00  0.00    +0.000 NA
ATOM     55  H   UNL     1       5.305   4.819  -1.274  0.00  0.00    +0.000 HD
ATOM     56  H   UNL     1       4.948   3.571  -2.275  0.00  0.00    +0.000 HD
ENDBRANCH  48  54
ENDBRANCH  47  48
ENDBRANCH  46  47
ENDBRANCH  19  46
TORSDOF 11
ENDMDL
MODEL 2
REMARK VINA RESULT:     0.002      5.817     10.245
REMARK INTER + INTRA:          -3.761
REMARK INTER:                   0.000
REMARK INTRA:                  -3.761
REMARK UNBOUND:                -3.764
REMARK  Name = 
REMARK  22 active torsions:
REMARK  status: ('A' for Active; 'I' for Inactive)
REMARK    1  A    between atoms: C_1  and  C_2
REMARK    2  A    between atoms: C_2  and  C_3
REMARK    3  A    between atoms: C_2  and  C_4
REMARK    4  A    between atoms: C_4  and  C_5
REMARK    5  A    between atoms: C_4  and  C_6
REMARK    6  A    between atoms: C_6  and  C_7
REMARK    7  A    between atoms: C_10  and  C_11
REMARK    8  A    between atoms: C_16  and  C_17
REMARK    9  A    between atoms: C_23  and  N_24
REMARK   10  A    between atoms: C_28  and  C_29
REMARK   11  A    between atoms: C_35  and  O_36
REMARK   12  A    between atoms: O_36  and  C_37
REMARK   13  A    between atoms: C_37  and  C_38
REMARK   14  A    between atoms: C_38  and  C_39
REMARK   15  A    between atoms: C_38  and  N_40
REMARK   16  A    between atoms: C_38  and  C_41
REMARK   17  A    between atoms: C_41  and  C_42
REMARK   18  A    between atoms: C_41  and  C_43
REMARK   19  A    between atoms: C_41  and  C_44
REMARK   20  A    between atoms: C_48  and  C_49
REMARK   21  A    between atoms: C_50  and  C_51
REMARK   22  A    between atoms: C_51  and  O_53
REMARK                            x       y       z     vdW  Elec       q    Type
REMARK                         _______ _______ _______ _____ _____    ______ ____
ROOT
ATOM      1  C   UNL     1       0.037  -2.546   5.770  0.00  0.00    +0.000 C 
ATOM      2  C   UNL     1      -1.238  -2.016   6.498  0.00  0.00    +0.000 C 
ATOM      3  C   UNL     1       0.461  -1.308   4.832  0.00  0.00    +0.000 C 
ATOM      4  C   UNL     1       0.602  -1.468   3.262  0.00  0.00    +0.000 C 
ATOM      5  C   UNL     1       0.765  -2.960   2.824  0.00  0.00    +0.000 C 
ATOM      6  C   UNL     1       2.195  -3.250   3.327  0.00  0.00    +0.000 C 
ATOM      7  C   UNL     1       0.830  -3.276   1.286  0.00  0.00    +0.000 C 
ATOM      8  C   UNL     1       2.026  -4.106   0.737  0.00  0.00    +0.000 C 
ATOM      9  C   UNL     1       2.061  -4.107  -0.797  0.00  0.00    +0.000 C 
ATOM     10  C   UNL     1       0.826  -3.424  -1.414  0.00  0.00    +0.000 C 
ATOM     11  C   UNL     1       0.728  -3.436  -2.929  0.00  0.00    +0.000 C 
ATOM     12  C   UNL     1       2.092  -3.124  -3.583  0.00  0.00    +0.000 C 
ATOM     13  C   UNL     1       0.304  -4.844  -3.383  0.00  0.00    +0.000 C 
ATOM     14  O   UNL     1      -0.986  -5.157  -2.886  0.00  0.00    +0.000 OA
ATOM     15  C   UNL     1      -0.991  -5.227  -1.467  0.00  0.00    +0.000 C 
ATOM     16  C   UNL     1      -0.531  -3.894  -0.807  0.00  0.00    +0.000 C 
ATOM     17  C   UNL     1      -1.638  -2.860  -1.022  0.00  0.00    +0.000 C 
ATOM     18  C   UNL     1      -1.596  -2.197  -2.388  0.00  0.00    +0.000 C 
ATOM     19  C   UNL     1      -0.308  -2.308  -3.284  0.00  0.00    +0.000 C 
ATOM     20  C   UNL     1      -0.338  -4.036   0.673  0.00  0.00    +0.000 C 
ATOM     21  C   UNL     1      -1.025  -4.926   1.392  0.00  0.00    +0.000 C 
ATOM     22  C   UNL     1      -0.697  -5.078   2.815  0.00  0.00    +0.000 C 
ATOM     23  C   UNL     1      -0.500  -3.676   3.451  0.00  0.00    +0.000 C 
ATOM     24  C   UNL     1      -1.832  -2.868   3.181  0.00  0.00    +0.000 C 
ATOM     25  C   UNL     1      -0.243  -3.846   4.950  0.00  0.00    +0.000 C 
ENDROOT
BRANCH  18  26
ATOM     26  N   UNL     1      -2.144  -0.822  -2.277  0.00  0.00    +0.000 N 
ATOM     27  N   UNL     1      -3.468  -0.675  -2.567  0.00  0.00    +0.000 NA
ATOM     28  C   UNL     1      -3.609   0.645  -2.529  0.00  0.00    +0.000 A 
ATOM     29  N   UNL     1      -2.498   1.357  -2.173  0.00  0.00    +0.000 NA
ATOM     30  C   UNL     1      -1.594   0.413  -1.934  0.00  0.00    +0.000 A 
BRANCH  30  31
ATOM     31  C   UNL     1      -0.267   0.757  -1.385  0.00  0.00    +0.000 A 
ATOM     32  C   UNL     1       0.236   0.136  -0.239  0.00  0.00    +0.000 A 
ATOM     33  C   UNL     1       1.504   0.489   0.237  0.00  0.00    +0.000 A 
ATOM     34  N   UNL     1       2.283   1.440  -0.316  0.00  0.00    +0.000 NA
ATOM     35  C   UNL     1       1.815   1.985  -1.438  0.00  0.00    +0.000 A 
ATOM     36  C   UNL     1       0.610   1.615  -2.011  0.00  0.00    +0.000 A 
ENDBRANCH  30  31
ENDBRANCH  18  26
BRANCH   1  37
ATOM     37  C   UNL     1       1.148  -2.857   6.936  0.00  0.00    +0.000 C 
ATOM     38  C   UNL     1       0.632  -3.189   8.356  0.00  0.00    +0.000 C 
BRANCH  37  40
ATOM     39  C   UNL     1       2.420  -1.205   8.544  0.00  0.00    +0.000 C 
ATOM     40  C   UNL     1       2.333  -1.837   7.159  0.00  0.00    +0.000 C 
ATOM     41  C   UNL     1       3.722  -2.262   6.624  0.00  0.00    +0.000 C 
ENDBRANCH  37  40
ENDBRANCH   1  37
BRANCH  25  42
ATOM     42  C   UNL     1      -1.200  -4.905   5.486  0.00  0.00    +0.000 C 
ATOM     43  O   UNL     1      -2.417  -4.789   5.537  0.00  0.00    +0.000 OA
BRANCH  42  44
ATOM     44  O   UNL     1      -0.624  -5.939   6.114  0.00  0.00    +0.000 OA
ATOM     45  H   UNL     1      -0.186  -5.509   6.880  0.00  0.00    +0.000 HD
ENDBRANCH  42  44
ENDBRANCH  25  42
BRANCH  19  46
ATOM     46  O   UNL     1      -0.619  -2.520  -4.663  0.00  0.00    +0.000 OA
BRANCH  46  47
ATOM     47  C   UNL     1      -0.648  -1.329  -5.434  0.00  0.00    +0.000 C 
BRANCH  47  48
ATOM     48  C   UNL     1       0.235  -1.447  -6.688  0.00  0.00    +0.000 C 
ATOM     49  C   UNL     1      -0.715  -1.103  -7.857  0.00  0.00    +0.000 C 
BRANCH  48  50
ATOM     50  C   UNL     1       1.525  -0.533  -6.617  0.00  0.00    +0.000 C 
ATOM     51  C   UNL     1       2.799  -1.381  -6.821  0.00  0.00    +0.000 C 
ATOM     52  C   UNL     1       1.504   0.559  -7.716  0.00  0.00    +0.000 C 
ATOM     53  C   UNL     1       1.682   0.203  -5.265  0.00  0.00    +0.000 C 
ENDBRANCH  48  50
BRANCH  48  54
ATOM     54  N   UNL     1       0.568  -2.880  -6.823  0.00  0.00    +0.000 NA
ATOM     55  H   UNL     1       0.808  -3.295  -5.942  0.00  0.00    +0.000 HD
ATOM     56  H   UNL     1      -0.267  -3.376  -7.177  0.00  0.00    +0.000 HD
ENDBRANCH  48  54
ENDBRANCH  47  48
ENDBRANCH  46  47
ENDBRANCH  19  46
TORSDOF 11
ENDMDL
MODEL 3
REMARK VINA RESULT:     0.003      5.303      7.886
REMARK INTER + INTRA:          -3.760
REMARK INTER:                   0.000
REMARK INTRA:                  -3.760
REMARK UNBOUND:                -3.764
REMARK  Name = 
REMARK  22 active torsions:
REMARK  status: ('A' for Active; 'I' for Inactive)
REMARK    1  A    between atoms: C_1  and  C_2
REMARK    2  A    between atoms: C_2  and  C_3
REMARK    3  A    between atoms: C_2  and  C_4
REMARK    4  A    between atoms: C_4  and  C_5
REMARK    5  A    between atoms: C_4  and  C_6
REMARK    6  A    between atoms: C_6  and  C_7
REMARK    7  A    between atoms: C_10  and  C_11
REMARK    8  A    between atoms: C_16  and  C_17
REMARK    9  A    between atoms: C_23  and  N_24
REMARK   10  A    between atoms: C_28  and  C_29
REMARK   11  A    between atoms: C_35  and  O_36
REMARK   12  A    between atoms: O_36  and  C_37
REMARK   13  A    between atoms: C_37  and  C_38
REMARK   14  A    between atoms: C_38  and  C_39
REMARK   15  A    between atoms: C_38  and  N_40
REMARK   16  A    between atoms: C_38  and  C_41
REMARK   17  A    between atoms: C_41  and  C_42
REMARK   18  A    between atoms: C_41  and  C_43
REMARK   19  A    between atoms: C_41  and  C_44
REMARK   20  A    between atoms: C_48  and  C_49
REMARK   21  A    between atoms: C_50  and  C_51
REMARK   22  A    between atoms: C_51  and  O_53
REMARK                            x       y       z     vdW  Elec       q    Type
REMARK                         _______ _______ _______ _____ _____    ______ ____
ROOT
ATOM      1  C   UNL     1       5.519  -2.713  -2.863  0.00  0.00    +0.000 C 
ATOM      2  C   UNL     1       6.589  -3.567  -2.112  0.00  0.00    +0.000 C 
ATOM      3  C   UNL     1       5.481  -1.347  -2.012  0.00  0.00    +0.000 C 
ATOM      4  C   UNL     1       4.138  -0.812  -1.365  0.00  0.00    +0.000 C 
ATOM      5  C   UNL     1       2.865  -1.440  -2.021  0.00  0.00    +0.000 C 
ATOM      6  C   UNL     1       2.882  -0.745  -3.398  0.00  0.00    +0.000 C 
ATOM      7  C   UNL     1       1.462  -1.064  -1.420  0.00  0.00    +0.000 C 
ATOM      8  C   UNL     1       0.362  -0.507  -2.369  0.00  0.00    +0.000 C 
ATOM      9  C   UNL     1      -0.842   0.035  -1.587  0.00  0.00    +0.000 C 
ATOM     10  C   UNL     1      -0.736  -0.244  -0.075  0.00  0.00    +0.000 C 
ATOM     11  C   UNL     1      -1.913   0.189   0.781  0.00  0.00    +0.000 C 
ATOM     12  C   UNL     1      -2.425   1.587   0.368  0.00  0.00    +0.000 C 
ATOM     13  C   UNL     1      -3.065  -0.810   0.572  0.00  0.00    +0.000 C 
ATOM     14  O   UNL     1      -2.687  -2.102   1.016  0.00  0.00    +0.000 OA
ATOM     15  C   UNL     1      -1.621  -2.627   0.238  0.00  0.00    +0.000 C 
ATOM     16  C   UNL     1      -0.359  -1.716   0.275  0.00  0.00    +0.000 C 
ATOM     17  C   UNL     1       0.258  -1.827   1.671  0.00  0.00    +0.000 C 
ATOM     18  C   UNL     1      -0.412  -0.939   2.705  0.00  0.00    +0.000 C 
ATOM     19  C   UNL     1      -1.359   0.232   2.250  0.00  0.00    +0.000 C 
ATOM     20  C   UNL     1       0.684  -2.160  -0.707  0.00  0.00    +0.000 C 
ATOM     21  C   UNL     1       0.800  -3.435  -1.085  0.00  0.00    +0.000 C 
ATOM     22  C   UNL     1       1.773  -3.768  -2.133  0.00  0.00    +0.000 C 
ATOM     23  C   UNL     1       3.096  -2.998  -1.871  0.00  0.00    +0.000 C 
ATOM     24  C   UNL     1       3.563  -3.391  -0.412  0.00  0.00    +0.000 C 
ATOM     25  C   UNL     1       4.127  -3.420  -2.920  0.00  0.00    +0.000 C 
ENDROOT
BRANCH  18  26
ATOM     26  N   UNL     1       0.588  -0.550   3.731  0.00  0.00    +0.000 N 
ATOM     27  N   UNL     1       0.636  -1.326   4.851  0.00  0.00    +0.000 NA
ATOM     28  C   UNL     1       1.489  -0.650   5.613  0.00  0.00    +0.000 A 
ATOM     29  N   UNL     1       2.045   0.464   5.047  0.00  0.00    +0.000 NA
ATOM     30  C   UNL     1       1.531   0.474   3.822  0.00  0.00    +0.000 A 
BRANCH  30  31
ATOM     31  C   UNL     1       1.983   1.459   2.820  0.00  0.00    +0.000 A 
ATOM     32  C   UNL     1       2.450   1.064   1.563  0.00  0.00    +0.000 A 
ATOM     33  C   UNL     1       2.860   2.035   0.642  0.00  0.00    +0.000 A 
ATOM     34  N   UNL     1       2.878   3.359   0.896  0.00  0.00    +0.000 NA
ATOM     35  C   UNL     1       2.380   3.725   2.077  0.00  0.00    +0.000 A 
ATOM     36  C   UNL     1       1.875   2.820   2.995  0.00  0.00    +0.000 A 
ENDBRANCH  30  31
ENDBRANCH  18  26
BRANCH   1  37
ATOM     37  C   UNL     1       6.086  -2.487  -4.386  0.00  0.00    +0.000 C 
ATOM     38  C   UNL     1       7.066  -3.539  -4.957  0.00  0.00    +0.000 C 
BRANCH  37  40
ATOM     39  C   UNL     1       8.169  -1.115  -5.229  0.00  0.00    +0.000 C 
ATOM     40  C   UNL     1       6.715  -1.090  -4.771  0.00  0.00    +0.000 C 
ATOM     41  C   UNL     1       5.845  -0.156  -5.645  0.00  0.00    +0.000 C 
ENDBRANCH  37  40
ENDBRANCH   1  37
BRANCH  25  42
ATOM     42  C   UNL     1       4.034  -4.930  -3.108  0.00  0.00    +0.000 C 
ATOM     43  O   UNL     1       4.314  -5.761  -2.254  0.00  0.00    +0.000 OA
BRANCH  42  44
ATOM     44  O   UNL     1       3.818  -5.343  -4.364  0.00  0.00    +0.000 OA
ATOM     45  H   UNL     1       3.297  -6.164  -4.234  0.00  0.00    +0.000 HD
ENDBRANCH  42  44
ENDBRANCH  25  42
BRANCH  19  46
ATOM     46  O   UNL     1      -2.522   0.344   3.075  0.00  0.00    +0.000 OA
BRANCH  46  47
ATOM     47  C   UNL     1      -2.395   1.297   4.119  0.00  0.00    +0.000 C 
BRANCH  47  48
ATOM     48  C   UNL     1      -3.582   2.275   4.137  0.00  0.00    +0.000 C 
ATOM     49  C   UNL     1      -4.125   2.188   5.582  0.00  0.00    +0.000 C 
BRANCH  48  50
ATOM     50  C   UNL     1      -3.177   3.738   3.689  0.00  0.00    +0.000 C 
ATOM     51  C   UNL     1      -4.045   4.196   2.498  0.00  0.00    +0.000 C 
ATOM     52  C   UNL     1      -3.378   4.756   4.839  0.00  0.00    +0.000 C 
ATOM     53  C   UNL     1      -1.699   3.857   3.247  0.00  0.00    +0.000 C 
ENDBRANCH  48  50
BRANCH  48  54
ATOM     54  N   UNL     1      -4.615   1.684   3.262  0.00  0.00    +0.000 NA
ATOM     55  H   UNL     1      -4.926   0.791   3.598  0.00  0.00    +0.000 HD
ATOM     56  H   UNL     1      -5.436   2.311   3.260  0.00  0.00    +0.000 HD
ENDBRANCH  48  54
ENDBRANCH  47  48
ENDBRANCH  46  47
ENDBRANCH  19  46
TORSDOF 11
ENDMDL
MODEL 4
REMARK VINA RESULT:     0.003      5.772     11.135
REMARK INTER + INTRA:          -3.760
REMARK INTER:                   0.000
REMARK INTRA:                  -3.760
REMARK UNBOUND:                -3.764
REMARK  Name = 
REMARK  22 active torsions:
REMARK  status: ('A' for Active; 'I' for Inactive)
REMARK    1  A    between atoms: C_1  and  C_2
REMARK    2  A    between atoms: C_2  and  C_3
REMARK    3  A    between atoms: C_2  and  C_4
REMARK    4  A    between atoms: C_4  and  C_5
REMARK    5  A    between atoms: C_4  and  C_6
REMARK    6  A    between atoms: C_6  and  C_7
REMARK    7  A    between atoms: C_10  and  C_11
REMARK    8  A    between atoms: C_16  and  C_17
REMARK    9  A    between atoms: C_23  and  N_24
REMARK   10  A    between atoms: C_28  and  C_29
REMARK   11  A    between atoms: C_35  and  O_36
REMARK   12  A    between atoms: O_36  and  C_37
REMARK   13  A    between atoms: C_37  and  C_38
REMARK   14  A    between atoms: C_38  and  C_39
REMARK   15  A    between atoms: C_38  and  N_40
REMARK   16  A    between atoms: C_38  and  C_41
REMARK   17  A    between atoms: C_41  and  C_42
REMARK   18  A    between atoms: C_41  and  C_43
REMARK   19  A    between atoms: C_41  and  C_44
REMARK   20  A    between atoms: C_48  and  C_49
REMARK   21  A    between atoms: C_50  and  C_51
REMARK   22  A    between atoms: C_51  and  O_53
REMARK                            x       y       z     vdW  Elec       q    Type
REMARK                         _______ _______ _______ _____ _____    ______ ____
ROOT
ATOM      1  C   UNL     1       2.132   4.673  -5.129  0.00  0.00    +0.000 C 
ATOM      2  C   UNL     1       3.547   4.453  -4.505  0.00  0.00    +0.000 C 
ATOM      3  C   UNL     1       1.139   4.222  -3.944  0.00  0.00    +0.000 C 
ATOM      4  C   UNL     1       0.060   3.082  -4.158  0.00  0.00    +0.000 C 
ATOM      5  C   UNL     1      -0.246   2.821  -5.668  0.00  0.00    +0.000 C 
ATOM      6  C   UNL     1      -1.027   4.103  -6.026  0.00  0.00    +0.000 C 
ATOM      7  C   UNL     1      -1.236   1.656  -6.031  0.00  0.00    +0.000 C 
ATOM      8  C   UNL     1      -2.458   1.963  -6.944  0.00  0.00    +0.000 C 
ATOM      9  C   UNL     1      -3.443   0.787  -6.991  0.00  0.00    +0.000 C 
ATOM     10  C   UNL     1      -2.909  -0.457  -6.256  0.00  0.00    +0.000 C 
ATOM     11  C   UNL     1      -3.777  -1.701  -6.304  0.00  0.00    +0.000 C 
ATOM     12  C   UNL     1      -5.268  -1.356  -6.092  0.00  0.00    +0.000 C 
ATOM     13  C   UNL     1      -3.641  -2.340  -7.698  0.00  0.00    +0.000 C 
ATOM     14  O   UNL     1      -2.307  -2.762  -7.922  0.00  0.00    +0.000 OA
ATOM     15  C   UNL     1      -1.412  -1.658  -7.951  0.00  0.00    +0.000 C 
ATOM     16  C   UNL     1      -1.443  -0.837  -6.629  0.00  0.00    +0.000 C 
ATOM     17  C   UNL     1      -0.781  -1.682  -5.538  0.00  0.00    +0.000 C 
ATOM     18  C   UNL     1      -1.708  -2.712  -4.918  0.00  0.00    +0.000 C 
ATOM     19  C   UNL     1      -3.263  -2.609  -5.129  0.00  0.00    +0.000 C 
ATOM     20  C   UNL     1      -0.662   0.438  -6.739  0.00  0.00    +0.000 C 
ATOM     21  C   UNL     1       0.379   0.558  -7.567  0.00  0.00    +0.000 C 
ATOM     22  C   UNL     1       1.021   1.871  -7.697  0.00  0.00    +0.000 C 
ATOM     23  C   UNL     1       1.175   2.511  -6.291  0.00  0.00    +0.000 C 
ATOM     24  C   UNL     1       1.994   1.479  -5.415  0.00  0.00    +0.000 C 
ATOM     25  C   UNL     1       1.922   3.840  -6.433  0.00  0.00    +0.000 C 
ENDROOT
BRANCH  18  26
ATOM     26  N   UNL     1      -1.298  -2.949  -3.511  0.00  0.00    +0.000 N 
ATOM     27  N   UNL     1      -0.458  -4.000  -3.296  0.00  0.00    +0.000 NA
ATOM     28  C   UNL     1      -0.407  -4.040  -1.969  0.00  0.00    +0.000 A 
ATOM     29  N   UNL     1      -1.096  -3.058  -1.313  0.00  0.00    +0.000 NA
ATOM     30  C   UNL     1      -1.591  -2.320  -2.301  0.00  0.00    +0.000 A 
BRANCH  30  31
ATOM     31  C   UNL     1      -2.305  -1.059  -2.019  0.00  0.00    +0.000 A 
ATOM     32  C   UNL     1      -1.928   0.146  -2.618  0.00  0.00    +0.000 A 
ATOM     33  C   UNL     1      -2.642   1.315  -2.327  0.00  0.00    +0.000 A 
ATOM     34  N   UNL     1      -3.668   1.377  -1.455  0.00  0.00    +0.000 NA
ATOM     35  C   UNL     1      -4.051   0.213  -0.932  0.00  0.00    +0.000 A 
ATOM     36  C   UNL     1      -3.445  -0.991  -1.250  0.00  0.00    +0.000 A 
ENDBRANCH  30  31
ENDBRANCH  18  26
BRANCH   1  37
ATOM     37  C   UNL     1       2.015   6.273  -5.471  0.00  0.00    +0.000 C 
ATOM     38  C   UNL     1       3.324   7.055  -5.729  0.00  0.00    +0.000 C 
BRANCH  37  40
ATOM     39  C   UNL     1       1.921   8.347  -3.852  0.00  0.00    +0.000 C 
ATOM     40  C   UNL     1       1.165   7.201  -4.516  0.00  0.00    +0.000 C 
ATOM     41  C   UNL     1      -0.223   7.643  -5.036  0.00  0.00    +0.000 C 
ENDBRANCH  37  40
ENDBRANCH   1  37
BRANCH  25  42
ATOM     42  C   UNL     1       3.068   3.645  -7.419  0.00  0.00    +0.000 C 
ATOM     43  O   UNL     1       4.040   2.926  -7.231  0.00  0.00    +0.000 OA
BRANCH  42  44
ATOM     44  O   UNL     1       3.078   4.482  -8.465  0.00  0.00    +0.000 OA
ATOM     45  H   UNL     1       4.019   4.467  -8.744  0.00  0.00    +0.000 HD
ENDBRANCH  42  44
ENDBRANCH  25  42
BRANCH  19  46
ATOM     46  O   UNL     1      -3.868  -3.884  -5.362  0.00  0.00    +0.000 OA
BRANCH  46  47
ATOM     47  C   UNL     1      -4.402  -4.487  -4.194  0.00  0.00    +0.000 C 
BRANCH  47  48
ATOM     48  C   UNL     1      -5.856  -4.939  -4.406  0.00  0.00    +0.000 C 
ATOM     49  C   UNL     1      -5.851  -6.435  -4.016  0.00  0.00    +0.000 C 
BRANCH  48  50
ATOM     50  C   UNL     1      -6.895  -4.065  -3.592  0.00  0.00    +0.000 C 
ATOM     51  C   UNL     1      -7.947  -3.455  -4.542  0.00  0.00    +0.000 C 
ATOM     52  C   UNL     1      -7.647  -4.917  -2.540  0.00  0.00    +0.000 C 
ATOM     53  C   UNL     1      -6.240  -2.891  -2.826  0.00  0.00    +0.000 C 
ENDBRANCH  48  50
BRANCH  48  54
ATOM     54  N   UNL     1      -6.095  -4.885  -5.863  0.00  0.00    +0.000 NA
ATOM     55  H   UNL     1      -5.368  -5.344  -6.380  0.00  0.00    +0.000 HD
ATOM     56  H   UNL     1      -6.976  -5.385  -6.067  0.00  0.00    +0.000 HD
ENDBRANCH  48  54
ENDBRANCH  47  48
ENDBRANCH  46  47
ENDBRANCH  19  46
TORSDOF 11
ENDMDL
MODEL 5
REMARK VINA RESULT:     0.003     11.607     14.567
REMARK INTER + INTRA:          -3.760
REMARK INTER:                   0.000
REMARK INTRA:                  -3.760
REMARK UNBOUND:                -3.764
REMARK  Name = 
REMARK  22 active torsions:
REMARK  status: ('A' for Active; 'I' for Inactive)
REMARK    1  A    between atoms: C_1  and  C_2
REMARK    2  A    between atoms: C_2  and  C_3
REMARK    3  A    between atoms: C_2  and  C_4
REMARK    4  A    between atoms: C_4  and  C_5
REMARK    5  A    between atoms: C_4  and  C_6
REMARK    6  A    between atoms: C_6  and  C_7
REMARK    7  A    between atoms: C_10  and  C_11
REMARK    8  A    between atoms: C_16  and  C_17
REMARK    9  A    between atoms: C_23  and  N_24
REMARK   10  A    between atoms: C_28  and  C_29
REMARK   11  A    between atoms: C_35  and  O_36
REMARK   12  A    between atoms: O_36  and  C_37
REMARK   13  A    between atoms: C_37  and  C_38
REMARK   14  A    between atoms: C_38  and  C_39
REMARK   15  A    between atoms: C_38  and  N_40
REMARK   16  A    between atoms: C_38  and  C_41
REMARK   17  A    between atoms: C_41  and  C_42
REMARK   18  A    between atoms: C_41  and  C_43
REMARK   19  A    between atoms: C_41  and  C_44
REMARK   20  A    between atoms: C_48  and  C_49
REMARK   21  A    between atoms: C_50  and  C_51
REMARK   22  A    between atoms: C_51  and  O_53
REMARK                            x       y       z     vdW  Elec       q    Type
REMARK                         _______ _______ _______ _____ _____    ______ ____
ROOT
ATOM      1  C   UNL     1      -6.792  -3.299   1.922  0.00  0.00    +0.000 C 
ATOM      2  C   UNL     1      -6.534  -3.202   0.386  0.00  0.00    +0.000 C 
ATOM      3  C   UNL     1      -7.592  -1.939   2.243  0.00  0.00    +0.000 C 
ATOM      4  C   UNL     1      -7.061  -0.900   3.315  0.00  0.00    +0.000 C 
ATOM      5  C   UNL     1      -6.030  -1.533   4.305  0.00  0.00    +0.000 C 
ATOM      6  C   UNL     1      -6.957  -2.440   5.139  0.00  0.00    +0.000 C 
ATOM      7  C   UNL     1      -5.355  -0.594   5.369  0.00  0.00    +0.000 C 
ATOM      8  C   UNL     1      -5.420  -0.990   6.872  0.00  0.00    +0.000 C 
ATOM      9  C   UNL     1      -4.936   0.147   7.782  0.00  0.00    +0.000 C 
ATOM     10  C   UNL     1      -4.363   1.335   6.985  0.00  0.00    +0.000 C 
ATOM     11  C   UNL     1      -3.791   2.484   7.795  0.00  0.00    +0.000 C 
ATOM     12  C   UNL     1      -4.694   2.828   9.000  0.00  0.00    +0.000 C 
ATOM     13  C   UNL     1      -2.419   2.059   8.347  0.00  0.00    +0.000 C 
ATOM     14  O   UNL     1      -1.512   1.813   7.286  0.00  0.00    +0.000 OA
ATOM     15  C   UNL     1      -1.929   0.711   6.493  0.00  0.00    +0.000 C 
ATOM     16  C   UNL     1      -3.344   0.926   5.879  0.00  0.00    +0.000 C 
ATOM     17  C   UNL     1      -3.224   1.998   4.793  0.00  0.00    +0.000 C 
ATOM     18  C   UNL     1      -3.244   3.417   5.334  0.00  0.00    +0.000 C 
ATOM     19  C   UNL     1      -3.735   3.700   6.801  0.00  0.00    +0.000 C 
ATOM     20  C   UNL     1      -3.867  -0.315   5.220  0.00  0.00    +0.000 C 
ATOM     21  C   UNL     1      -3.051  -1.232   4.694  0.00  0.00    +0.000 C 
ATOM     22  C   UNL     1      -3.638  -2.470   4.168  0.00  0.00    +0.000 C 
ATOM     23  C   UNL     1      -4.915  -2.130   3.354  0.00  0.00    +0.000 C 
ATOM     24  C   UNL     1      -4.475  -1.101   2.237  0.00  0.00    +0.000 C 
ATOM     25  C   UNL     1      -5.467  -3.419   2.741  0.00  0.00    +0.000 C 
ENDROOT
BRANCH  18  26
ATOM     26  N   UNL     1      -3.832   4.318   4.310  0.00  0.00    +0.000 N 
ATOM     27  N   UNL     1      -2.950   4.952   3.487  0.00  0.00    +0.000 NA
ATOM     28  C   UNL     1      -3.750   5.773   2.814  0.00  0.00    +0.000 A 
ATOM     29  N   UNL     1      -5.084   5.671   3.092  0.00  0.00    +0.000 NA
ATOM     30  C   UNL     1      -5.137   4.686   3.983  0.00  0.00    +0.000 A 
BRANCH  30  31
ATOM     31  C   UNL     1      -6.433   4.161   4.455  0.00  0.00    +0.000 A 
ATOM     32  C   UNL     1      -6.739   2.799   4.391  0.00  0.00    +0.000 A 
ATOM     33  C   UNL     1      -7.978   2.347   4.859  0.00  0.00    +0.000 A 
ATOM     34  N   UNL     1      -8.944   3.153   5.344  0.00  0.00    +0.000 NA
ATOM     35  C   UNL     1      -8.620   4.441   5.449  0.00  0.00    +0.000 A 
ATOM     36  C   UNL     1      -7.378   4.938   5.088  0.00  0.00    +0.000 A 
ENDBRANCH  30  31
ENDBRANCH  18  26
BRANCH   1  37
ATOM     37  C   UNL     1      -7.711  -4.638   2.159  0.00  0.00    +0.000 C 
ATOM     38  C   UNL     1      -7.589  -5.789   1.135  0.00  0.00    +0.000 C 
BRANCH  37  40
ATOM     39  C   UNL     1     -10.176  -5.208   1.432  0.00  0.00    +0.000 C 
ATOM     40  C   UNL     1      -9.262  -4.469   2.404  0.00  0.00    +0.000 C 
ATOM     41  C   UNL     1      -9.749  -4.590   3.867  0.00  0.00    +0.000 C 
ENDBRANCH  37  40
ENDBRANCH   1  37
BRANCH  25  42
ATOM     42  C   UNL     1      -4.298  -4.236   2.203  0.00  0.00    +0.000 C 
ATOM     43  O   UNL     1      -3.582  -3.903   1.267  0.00  0.00    +0.000 OA
BRANCH  42  44
ATOM     44  O   UNL     1      -4.197  -5.484   2.680  0.00  0.00    +0.000 OA
ATOM     45  H   UNL     1      -4.881  -5.966   2.166  0.00  0.00    +0.000 HD
ENDBRANCH  42  44
ENDBRANCH  25  42
BRANCH  19  46
ATOM     46  O   UNL     1      -2.931   4.678   7.466  0.00  0.00    +0.000 OA
BRANCH  46  47
ATOM     47  C   UNL     1      -3.451   5.995   7.393  0.00  0.00    +0.000 C 
BRANCH  47  48
ATOM     48  C   UNL     1      -3.528   6.651   8.781  0.00  0.00    +0.000 C 
ATOM     49  C   UNL     1      -2.751   7.977   8.621  0.00  0.00    +0.000 C 
BRANCH  48  50
ATOM     50  C   UNL     1      -5.015   6.834   9.292  0.00  0.00    +0.000 C 
ATOM     51  C   UNL     1      -5.205   6.143  10.658  0.00  0.00    +0.000 C 
ATOM     52  C   UNL     1      -5.371   8.331   9.467  0.00  0.00    +0.000 C 
ATOM     53  C   UNL     1      -6.071   6.237   8.331  0.00  0.00    +0.000 C 
ENDBRANCH  48  50
BRANCH  48  54
ATOM     54  N   UNL     1      -2.725   5.799   9.683  0.00  0.00    +0.000 NA
ATOM     55  H   UNL     1      -2.947   4.827   9.577  0.00  0.00    +0.000 HD
ATOM     56  H   UNL     1      -1.728   5.913   9.436  0.00  0.00    +0.000 HD
ENDBRANCH  48  54
ENDBRANCH  47  48
ENDBRANCH  46  47
ENDBRANCH  19  46
TORSDOF 11
ENDMDL
MODEL 6
REMARK VINA RESULT:     0.003      6.444     11.075
REMARK INTER + INTRA:          -3.760
REMARK INTER:                   0.000
REMARK INTRA:                  -3.760
REMARK UNBOUND:                -3.764
REMARK  Name = 
REMARK  22 active torsions:
REMARK  status: ('A' for Active; 'I' for Inactive)
REMARK    1  A    between atoms: C_1  and  C_2
REMARK    2  A    between atoms: C_2  and  C_3
REMARK    3  A    between atoms: C_2  and  C_4
REMARK    4  A    between atoms: C_4  and  C_5
REMARK    5  A    between atoms: C_4  and  C_6
REMARK    6  A    between atoms: C_6  and  C_7
REMARK    7  A    between atoms: C_10  and  C_11
REMARK    8  A    between atoms: C_16  and  C_17
REMARK    9  A    between atoms: C_23  and  N_24
REMARK   10  A    between atoms: C_28  and  C_29
REMARK   11  A    between atoms: C_35  and  O_36
REMARK   12  A    between atoms: O_36  and  C_37
REMARK   13  A    between atoms: C_37  and  C_38
REMARK   14  A    between atoms: C_38  and  C_39
REMARK   15  A    between atoms: C_38  and  N_40
REMARK   16  A    between atoms: C_38  and  C_41
REMARK   17  A    between atoms: C_41  and  C_42
REMARK   18  A    between atoms: C_41  and  C_43
REMARK   19  A    between atoms: C_41  and  C_44
REMARK   20  A    between atoms: C_48  and  C_49
REMARK   21  A    between atoms: C_50  and  C_51
REMARK   22  A    between atoms: C_51  and  O_53
REMARK                            x       y       z     vdW  Elec       q    Type
REMARK                         _______ _______ _______ _____ _____    ______ ____
ROOT
ATOM      1  C   UNL     1       4.890   2.598  -1.753  0.00  0.00    +0.000 C 
ATOM      2  C   UNL     1       4.881   4.136  -2.022  0.00  0.00    +0.000 C 
ATOM      3  C   UNL     1       3.363   2.171  -2.033  0.00  0.00    +0.000 C 
ATOM      4  C   UNL     1       2.491   1.443  -0.929  0.00  0.00    +0.000 C 
ATOM      5  C   UNL     1       3.366   0.787   0.188  0.00  0.00    +0.000 C 
ATOM      6  C   UNL     1       3.986  -0.392  -0.590  0.00  0.00    +0.000 C 
ATOM      7  C   UNL     1       2.630   0.102   1.397  0.00  0.00    +0.000 C 
ATOM      8  C   UNL     1       2.979  -1.371   1.755  0.00  0.00    +0.000 C 
ATOM      9  C   UNL     1       2.003  -1.953   2.785  0.00  0.00    +0.000 C 
ATOM     10  C   UNL     1       1.018  -0.898   3.325  0.00  0.00    +0.000 C 
ATOM     11  C   UNL     1       0.055  -1.356   4.404  0.00  0.00    +0.000 C 
ATOM     12  C   UNL     1      -0.530  -2.749   4.083  0.00  0.00    +0.000 C 
ATOM     13  C   UNL     1       0.823  -1.468   5.733  0.00  0.00    +0.000 C 
ATOM     14  O   UNL     1       1.313  -0.198   6.131  0.00  0.00    +0.000 OA
ATOM     15  C   UNL     1       2.272   0.299   5.209  0.00  0.00    +0.000 C 
ATOM     16  C   UNL     1       1.695   0.435   3.770  0.00  0.00    +0.000 C 
ATOM     17  C   UNL     1       0.704   1.601   3.771  0.00  0.00    +0.000 C 
ATOM     18  C   UNL     1      -0.674   1.229   4.287  0.00  0.00    +0.000 C 
ATOM     19  C   UNL     1      -1.092  -0.281   4.415  0.00  0.00    +0.000 C 
ATOM     20  C   UNL     1       2.759   0.757   2.764  0.00  0.00    +0.000 C 
ATOM     21  C   UNL     1       3.865   1.426   3.097  0.00  0.00    +0.000 C 
ATOM     22  C   UNL     1       4.908   1.605   2.080  0.00  0.00    +0.000 C 
ATOM     23  C   UNL     1       4.248   1.985   0.727  0.00  0.00    +0.000 C 
ATOM     24  C   UNL     1       3.385   3.283   0.997  0.00  0.00    +0.000 C 
ATOM     25  C   UNL     1       5.350   2.251  -0.301  0.00  0.00    +0.000 C 
ENDROOT
BRANCH  18  26
ATOM     26  N   UNL     1      -1.688   2.089   3.626  0.00  0.00    +0.000 N 
ATOM     27  N   UNL     1      -2.056   3.215   4.300  0.00  0.00    +0.000 NA
ATOM     28  C   UNL     1      -3.054   3.668   3.548  0.00  0.00    +0.000 A 
ATOM     29  N   UNL     1      -3.313   2.959   2.408  0.00  0.00    +0.000 NA
ATOM     30  C   UNL     1      -2.388   2.006   2.423  0.00  0.00    +0.000 A 
BRANCH  30  31
ATOM     31  C   UNL     1      -2.232   1.085   1.279  0.00  0.00    +0.000 A 
ATOM     32  C   UNL     1      -1.001   0.912   0.640  0.00  0.00    +0.000 A 
ATOM     33  C   UNL     1      -0.900   0.020  -0.434  0.00  0.00    +0.000 A 
ATOM     34  N   UNL     1      -1.938  -0.674  -0.941  0.00  0.00    +0.000 NA
ATOM     35  C   UNL     1      -3.092  -0.540  -0.290  0.00  0.00    +0.000 A 
ATOM     36  C   UNL     1      -3.236   0.255   0.835  0.00  0.00    +0.000 A 
ENDBRANCH  30  31
ENDBRANCH  18  26
BRANCH   1  37
ATOM     37  C   UNL     1       5.934   1.940  -2.836  0.00  0.00    +0.000 C 
ATOM     38  C   UNL     1       7.066   2.838  -3.386  0.00  0.00    +0.000 C 
BRANCH  37  40
ATOM     39  C   UNL     1       5.759   1.755  -5.456  0.00  0.00    +0.000 C 
ATOM     40  C   UNL     1       5.355   1.189  -4.099  0.00  0.00    +0.000 C 
ATOM     41  C   UNL     1       5.414  -0.357  -4.072  0.00  0.00    +0.000 C 
ENDBRANCH  37  40
ENDBRANCH   1  37
BRANCH  25  42
ATOM     42  C   UNL     1       6.454   3.058   0.373  0.00  0.00    +0.000 C 
ATOM     43  O   UNL     1       6.332   4.202   0.788  0.00  0.00    +0.000 OA
BRANCH  42  44
ATOM     44  O   UNL     1       7.680   2.520   0.314  0.00  0.00    +0.000 OA
ATOM     45  H   UNL     1       8.225   3.263  -0.024  0.00  0.00    +0.000 HD
ENDBRANCH  42  44
ENDBRANCH  25  42
BRANCH  19  46
ATOM     46  O   UNL     1      -1.828  -0.545   5.613  0.00  0.00    +0.000 OA
BRANCH  46  47
ATOM     47  C   UNL     1      -3.235  -0.514   5.441  0.00  0.00    +0.000 C 
BRANCH  47  48
ATOM     48  C   UNL     1      -3.902  -1.778   6.009  0.00  0.00    +0.000 C 
ATOM     49  C   UNL     1      -4.972  -1.239   6.985  0.00  0.00    +0.000 C 
BRANCH  48  50
ATOM     50  C   UNL     1      -4.479  -2.727   4.882  0.00  0.00    +0.000 C 
ATOM     51  C   UNL     1      -3.874  -4.142   5.007  0.00  0.00    +0.000 C 
ATOM     52  C   UNL     1      -6.018  -2.861   4.990  0.00  0.00    +0.000 C 
ATOM     53  C   UNL     1      -4.177  -2.229   3.448  0.00  0.00    +0.000 C 
ENDBRANCH  48  50
BRANCH  48  54
ATOM     54  N   UNL     1      -2.876  -2.446   6.837  0.00  0.00    +0.000 NA
ATOM     55  H   UNL     1      -3.270  -2.856   7.664  0.00  0.00    +0.000 HD
ATOM     56  H   UNL     1      -2.462  -3.214   6.284  0.00  0.00    +0.000 HD
ENDBRANCH  48  54
ENDBRANCH  47  48
ENDBRANCH  46  47
ENDBRANCH  19  46
TORSDOF 11
ENDMDL
MODEL 7
REMARK VINA RESULT:     0.004      7.825     11.926
REMARK INTER + INTRA:          -3.759
REMARK INTER:                   0.000
REMARK INTRA:                  -3.759
REMARK UNBOUND:                -3.764
REMARK  Name = 
REMARK  22 active torsions:
REMARK  status: ('A' for Active; 'I' for Inactive)
REMARK    1  A    between atoms: C_1  and  C_2
REMARK    2  A    between atoms: C_2  and  C_3
REMARK    3  A    between atoms: C_2  and  C_4
REMARK    4  A    between atoms: C_4  and  C_5
REMARK    5  A    between atoms: C_4  and  C_6
REMARK    6  A    between atoms: C_6  and  C_7
REMARK    7  A    between atoms: C_10  and  C_11
REMARK    8  A    between atoms: C_16  and  C_17
REMARK    9  A    between atoms: C_23  and  N_24
REMARK   10  A    between atoms: C_28  and  C_29
REMARK   11  A    between atoms: C_35  and  O_36
REMARK   12  A    between atoms: O_36  and  C_37
REMARK   13  A    between atoms: C_37  and  C_38
REMARK   14  A    between atoms: C_38  and  C_39
REMARK   15  A    between atoms: C_38  and  N_40
REMARK   16  A    between atoms: C_38  and  C_41
REMARK   17  A    between atoms: C_41  and  C_42
REMARK   18  A    between atoms: C_41  and  C_43
REMARK   19  A    between atoms: C_41  and  C_44
REMARK   20  A    between atoms: C_48  and  C_49
REMARK   21  A    between atoms: C_50  and  C_51
REMARK   22  A    between atoms: C_51  and  O_53
REMARK                            x       y       z     vdW  Elec       q    Type
REMARK                         _______ _______ _______ _____ _____    ______ ____
ROOT
ATOM      1  C   UNL     1       6.643  -4.983   0.391  0.00  0.00    +0.000 C 
ATOM      2  C   UNL     1       6.601  -4.997  -1.169  0.00  0.00    +0.000 C 
ATOM      3  C   UNL     1       6.037  -6.423   0.784  0.00  0.00    +0.000 C 
ATOM      4  C   UNL     1       4.768  -6.558   1.722  0.00  0.00    +0.000 C 
ATOM      5  C   UNL     1       4.503  -5.267   2.562  0.00  0.00    +0.000 C 
ATOM      6  C   UNL     1       5.676  -5.332   3.562  0.00  0.00    +0.000 C 
ATOM      7  C   UNL     1       3.224  -5.228   3.475  0.00  0.00    +0.000 C 
ATOM      8  C   UNL     1       3.384  -4.881   4.983  0.00  0.00    +0.000 C 
ATOM      9  C   UNL     1       2.088  -5.131   5.765  0.00  0.00    +0.000 C 
ATOM     10  C   UNL     1       0.911  -5.511   4.848  0.00  0.00    +0.000 C 
ATOM     11  C   UNL     1      -0.437  -5.709   5.517  0.00  0.00    +0.000 C 
ATOM     12  C   UNL     1      -0.299  -6.504   6.835  0.00  0.00    +0.000 C 
ATOM     13  C   UNL     1      -1.020  -4.328   5.865  0.00  0.00    +0.000 C 
ATOM     14  O   UNL     1      -1.254  -3.578   4.685  0.00  0.00    +0.000 OA
ATOM     15  C   UNL     1      -0.040  -3.288   4.006  0.00  0.00    +0.000 C 
ATOM     16  C   UNL     1       0.739  -4.576   3.612  0.00  0.00    +0.000 C 
ATOM     17  C   UNL     1      -0.033  -5.263   2.483  0.00  0.00    +0.000 C 
ATOM     18  C   UNL     1      -1.193  -6.115   2.970  0.00  0.00    +0.000 C 
ATOM     19  C   UNL     1      -1.294  -6.526   4.484  0.00  0.00    +0.000 C 
ATOM     20  C   UNL     1       2.110  -4.267   3.087  0.00  0.00    +0.000 C 
ATOM     21  C   UNL     1       2.387  -3.114   2.474  0.00  0.00    +0.000 C 
ATOM     22  C   UNL     1       3.777  -2.843   2.089  0.00  0.00    +0.000 C 
ATOM     23  C   UNL     1       4.399  -4.124   1.472  0.00  0.00    +0.000 C 
ATOM     24  C   UNL     1       3.468  -4.540   0.264  0.00  0.00    +0.000 C 
ATOM     25  C   UNL     1       5.819  -3.803   0.998  0.00  0.00    +0.000 C 
ENDROOT
BRANCH  18  26
ATOM     26  N   UNL     1      -1.404  -7.235   2.018  0.00  0.00    +0.000 N 
ATOM     27  N   UNL     1      -2.338  -7.033   1.046  0.00  0.00    +0.000 NA
ATOM     28  C   UNL     1      -2.401  -8.231   0.477  0.00  0.00    +0.000 A 
ATOM     29  N   UNL     1      -1.535  -9.171   0.962  0.00  0.00    +0.000 NA
ATOM     30  C   UNL     1      -0.847  -8.507   1.884  0.00  0.00    +0.000 A 
BRANCH  30  31
ATOM     31  C   UNL     1       0.301  -9.133   2.570  0.00  0.00    +0.000 A 
ATOM     32  C   UNL     1       1.558  -8.523   2.600  0.00  0.00    +0.000 A 
ATOM     33  C   UNL     1       2.614  -9.150   3.270  0.00  0.00    +0.000 A 
ATOM     34  N   UNL     1       2.520 -10.353   3.872  0.00  0.00    +0.000 NA
ATOM     35  C   UNL     1       1.304 -10.898   3.882  0.00  0.00    +0.000 A 
ATOM     36  C   UNL     1       0.199 -10.285   3.316  0.00  0.00    +0.000 A 
ENDBRANCH  30  31
ENDBRANCH  18  26
BRANCH   1  37
ATOM     37  C   UNL     1       8.221  -4.831   0.815  0.00  0.00    +0.000 C 
ATOM     38  C   UNL     1       9.170  -4.116  -0.174  0.00  0.00    +0.000 C 
BRANCH  37  40
ATOM     39  C   UNL     1      10.271  -6.452   0.499  0.00  0.00    +0.000 C 
ATOM     40  C   UNL     1       9.014  -6.111   1.291  0.00  0.00    +0.000 C 
ATOM     41  C   UNL     1       9.227  -6.266   2.816  0.00  0.00    +0.000 C 
ENDBRANCH  37  40
ENDBRANCH   1  37
BRANCH  25  42
ATOM     42  C   UNL     1       5.803  -2.441   0.314  0.00  0.00    +0.000 C 
ATOM     43  O   UNL     1       5.218  -2.188  -0.731  0.00  0.00    +0.000 OA
BRANCH  42  44
ATOM     44  O   UNL     1       6.655  -1.535   0.812  0.00  0.00    +0.000 OA
ATOM     45  H   UNL     1       7.335  -1.469   0.108  0.00  0.00    +0.000 HD
ENDBRANCH  42  44
ENDBRANCH  25  42
BRANCH  19  46
ATOM     46  O   UNL     1      -2.633  -6.452   4.982  0.00  0.00    +0.000 OA
BRANCH  46  47
ATOM     47  C   UNL     1      -3.329  -7.687   4.940  0.00  0.00    +0.000 C 
BRANCH  47  48
ATOM     48  C   UNL     1      -3.968  -8.021   6.298  0.00  0.00    +0.000 C 
ATOM     49  C   UNL     1      -5.457  -8.271   5.969  0.00  0.00    +0.000 C 
BRANCH  48  50
ATOM     50  C   UNL     1      -3.258  -9.233   7.028  0.00  0.00    +0.000 C 
ATOM     51  C   UNL     1      -2.772  -8.808   8.430  0.00  0.00    +0.000 C 
ATOM     52  C   UNL     1      -4.226 -10.429   7.207  0.00  0.00    +0.000 C 
ATOM     53  C   UNL     1      -2.025  -9.771   6.264  0.00  0.00    +0.000 C 
ENDBRANCH  48  50
BRANCH  48  54
ATOM     54  N   UNL     1      -3.917  -6.777   7.094  0.00  0.00    +0.000 NA
ATOM     55  H   UNL     1      -3.097  -6.734   7.671  0.00  0.00    +0.000 HD
ATOM     56  H   UNL     1      -3.874  -5.976   6.443  0.00  0.00    +0.000 HD
ENDBRANCH  48  54
ENDBRANCH  47  48
ENDBRANCH  46  47
ENDBRANCH  19  46
TORSDOF 11
ENDMDL
MODEL 8
REMARK VINA RESULT:     0.006      6.844     11.389
REMARK INTER + INTRA:          -3.755
REMARK INTER:                   0.000
REMARK INTRA:                  -3.755
REMARK UNBOUND:                -3.764
REMARK  Name = 
REMARK  22 active torsions:
REMARK  status: ('A' for Active; 'I' for Inactive)
REMARK    1  A    between atoms: C_1  and  C_2
REMARK    2  A    between atoms: C_2  and  C_3
REMARK    3  A    between atoms: C_2  and  C_4
REMARK    4  A    between atoms: C_4  and  C_5
REMARK    5  A    between atoms: C_4  and  C_6
REMARK    6  A    between atoms: C_6  and  C_7
REMARK    7  A    between atoms: C_10  and  C_11
REMARK    8  A    between atoms: C_16  and  C_17
REMARK    9  A    between atoms: C_23  and  N_24
REMARK   10  A    between atoms: C_28  and  C_29
REMARK   11  A    between atoms: C_35  and  O_36
REMARK   12  A    between atoms: O_36  and  C_37
REMARK   13  A    between atoms: C_37  and  C_38
REMARK   14  A    between atoms: C_38  and  C_39
REMARK   15  A    between atoms: C_38  and  N_40
REMARK   16  A    between atoms: C_38  and  C_41
REMARK   17  A    between atoms: C_41  and  C_42
REMARK   18  A    between atoms: C_41  and  C_43
REMARK   19  A    between atoms: C_41  and  C_44
REMARK   20  A    between atoms: C_48  and  C_49
REMARK   21  A    between atoms: C_50  and  C_51
REMARK   22  A    between atoms: C_51  and  O_53
REMARK                            x       y       z     vdW  Elec       q    Type
REMARK                         _______ _______ _______ _____ _____    ______ ____
ROOT
ATOM      1  C   UNL     1      -0.401  -3.640   5.971  0.00  0.00    +0.000 C 
ATOM      2  C   UNL     1       1.090  -3.983   6.280  0.00  0.00    +0.000 C 
ATOM      3  C   UNL     1      -0.759  -4.637   4.758  0.00  0.00    +0.000 C 
ATOM      4  C   UNL     1      -1.290  -4.093   3.368  0.00  0.00    +0.000 C 
ATOM      5  C   UNL     1      -1.860  -2.641   3.471  0.00  0.00    +0.000 C 
ATOM      6  C   UNL     1      -3.163  -2.902   4.255  0.00  0.00    +0.000 C 
ATOM      7  C   UNL     1      -2.344  -1.941   2.149  0.00  0.00    +0.000 C 
ATOM      8  C   UNL     1      -3.782  -1.350   2.092  0.00  0.00    +0.000 C 
ATOM      9  C   UNL     1      -4.170  -0.934   0.667  0.00  0.00    +0.000 C 
ATOM     10  C   UNL     1      -2.995  -1.057  -0.322  0.00  0.00    +0.000 C 
ATOM     11  C   UNL     1      -3.255  -0.600  -1.746  0.00  0.00    +0.000 C 
ATOM     12  C   UNL     1      -4.637  -1.077  -2.247  0.00  0.00    +0.000 C 
ATOM     13  C   UNL     1      -3.254   0.938  -1.776  0.00  0.00    +0.000 C 
ATOM     14  O   UNL     1      -1.980   1.441  -1.410  0.00  0.00    +0.000 OA
ATOM     15  C   UNL     1      -1.662   1.114  -0.064  0.00  0.00    +0.000 C 
ATOM     16  C   UNL     1      -1.665  -0.422   0.188  0.00  0.00    +0.000 C 
ATOM     17  C   UNL     1      -0.445  -1.015  -0.521  0.00  0.00    +0.000 C 
ATOM     18  C   UNL     1      -0.662  -1.260  -2.004  0.00  0.00    +0.000 C 
ATOM     19  C   UNL     1      -2.116  -1.259  -2.604  0.00  0.00    +0.000 C 
ATOM     20  C   UNL     1      -1.537  -0.754   1.644  0.00  0.00    +0.000 C 
ATOM     21  C   UNL     1      -0.906   0.054   2.499  0.00  0.00    +0.000 C 
ATOM     22  C   UNL     1      -0.920  -0.289   3.926  0.00  0.00    +0.000 C 
ATOM     23  C   UNL     1      -0.665  -1.811   4.093  0.00  0.00    +0.000 C 
ATOM     24  C   UNL     1       0.709  -2.118   3.372  0.00  0.00    +0.000 C 
ATOM     25  C   UNL     1      -0.598  -2.139   5.587  0.00  0.00    +0.000 C 
ENDROOT
BRANCH  18  26
ATOM     26  N   UNL     1       0.175  -2.408  -2.434  0.00  0.00    +0.000 N 
ATOM     27  N   UNL     1       1.396  -2.103  -2.957  0.00  0.00    +0.000 NA
ATOM     28  C   UNL     1       1.817  -3.292  -3.374  0.00  0.00    +0.000 A 
ATOM     29  N   UNL     1       0.994  -4.349  -3.101  0.00  0.00    +0.000 NA
ATOM     30  C   UNL     1      -0.008  -3.791  -2.431  0.00  0.00    +0.000 A 
BRANCH  30  31
ATOM     31  C   UNL     1      -1.069  -4.621  -1.826  0.00  0.00    +0.000 A 
ATOM     32  C   UNL     1      -1.400  -4.516  -0.473  0.00  0.00    +0.000 A 
ATOM     33  C   UNL     1      -2.420  -5.317   0.053  0.00  0.00    +0.000 A 
ATOM     34  N   UNL     1      -3.100  -6.240  -0.657  0.00  0.00    +0.000 NA
ATOM     35  C   UNL     1      -2.812  -6.291  -1.957  0.00  0.00    +0.000 A 
ATOM     36  C   UNL     1      -1.879  -5.462  -2.556  0.00  0.00    +0.000 A 
ENDBRANCH  30  31
ENDBRANCH  18  26
BRANCH   1  37
ATOM     37  C   UNL     1      -1.252  -3.978   7.332  0.00  0.00    +0.000 C 
ATOM     38  C   UNL     1      -0.503  -3.927   8.684  0.00  0.00    +0.000 C 
BRANCH  37  40
ATOM     39  C   UNL     1      -1.742  -6.292   8.489  0.00  0.00    +0.000 C 
ATOM     40  C   UNL     1      -2.112  -5.302   7.390  0.00  0.00    +0.000 C 
ATOM     41  C   UNL     1      -3.644  -5.139   7.244  0.00  0.00    +0.000 C 
ENDBRANCH  37  40
ENDBRANCH   1  37
BRANCH  25  42
ATOM     42  C   UNL     1       0.211  -1.051   6.283  0.00  0.00    +0.000 C 
ATOM     43  O   UNL     1       1.404  -0.842   6.105  0.00  0.00    +0.000 OA
BRANCH  42  44
ATOM     44  O   UNL     1      -0.409  -0.429   7.295  0.00  0.00    +0.000 OA
ATOM     45  H   UNL     1       0.336  -0.182   7.884  0.00  0.00    +0.000 HD
ENDBRANCH  42  44
ENDBRANCH  25  42
BRANCH  19  46
ATOM     46  O   UNL     1      -2.184  -0.598  -3.870  0.00  0.00    +0.000 OA
BRANCH  46  47
ATOM     47  C   UNL     1      -2.083  -1.473  -4.981  0.00  0.00    +0.000 C 
BRANCH  47  48
ATOM     48  C   UNL     1      -3.222  -1.242  -5.988  0.00  0.00    +0.000 C 
ATOM     49  C   UNL     1      -2.500  -1.000  -7.333  0.00  0.00    +0.000 C 
BRANCH  48  50
ATOM     50  C   UNL     1      -4.262  -2.435  -6.022  0.00  0.00    +0.000 C 
ATOM     51  C   UNL     1      -5.687  -1.916  -5.735  0.00  0.00    +0.000 C 
ATOM     52  C   UNL     1      -4.282  -3.127  -7.407  0.00  0.00    +0.000 C 
ATOM     53  C   UNL     1      -3.963  -3.539  -4.979  0.00  0.00    +0.000 C 
ENDBRANCH  48  50
BRANCH  48  54
ATOM     54  N   UNL     1      -3.850   0.041  -5.610  0.00  0.00    +0.000 NA
ATOM     55  H   UNL     1      -3.560   0.347  -4.700  0.00  0.00    +0.000 HD
ATOM     56  H   UNL     1      -3.548   0.762  -6.286  0.00  0.00    +0.000 HD
ENDBRANCH  48  54
ENDBRANCH  47  48
ENDBRANCH  46  47
ENDBRANCH  19  46
TORSDOF 11
ENDMDL
MODEL 9
REMARK VINA RESULT:     0.006      8.106     11.005
REMARK INTER + INTRA:          -3.755
REMARK INTER:                   0.000
REMARK INTRA:                  -3.755
REMARK UNBOUND:                -3.764
REMARK  Name = 
REMARK  22 active torsions:
REMARK  status: ('A' for Active; 'I' for Inactive)
REMARK    1  A    between atoms: C_1  and  C_2
REMARK    2  A    between atoms: C_2  and  C_3
REMARK    3  A    between atoms: C_2  and  C_4
REMARK    4  A    between atoms: C_4  and  C_5
REMARK    5  A    between atoms: C_4  and  C_6
REMARK    6  A    between atoms: C_6  and  C_7
REMARK    7  A    between atoms: C_10  and  C_11
REMARK    8  A    between atoms: C_16  and  C_17
REMARK    9  A    between atoms: C_23  and  N_24
REMARK   10  A    between atoms: C_28  and  C_29
REMARK   11  A    between atoms: C_35  and  O_36
REMARK   12  A    between atoms: O_36  and  C_37
REMARK   13  A    between atoms: C_37  and  C_38
REMARK   14  A    between atoms: C_38  and  C_39
REMARK   15  A    between atoms: C_38  and  N_40
REMARK   16  A    between atoms: C_38  and  C_41
REMARK   17  A    between atoms: C_41  and  C_42
REMARK   18  A    between atoms: C_41  and  C_43
REMARK   19  A    between atoms: C_41  and  C_44
REMARK   20  A    between atoms: C_48  and  C_49
REMARK   21  A    between atoms: C_50  and  C_51
REMARK   22  A    between atoms: C_51  and  O_53
REMARK                            x       y       z     vdW  Elec       q    Type
REMARK                         _______ _______ _______ _____ _____    ______ ____
ROOT
ATOM      1  C   UNL     1      -6.869  -6.126   3.158  0.00  0.00    +0.000 C 
ATOM      2  C   UNL     1      -7.771  -5.403   4.208  0.00  0.00    +0.000 C 
ATOM      3  C   UNL     1      -5.489  -5.300   3.235  0.00  0.00    +0.000 C 
ATOM      4  C   UNL     1      -4.865  -4.609   1.952  0.00  0.00    +0.000 C 
ATOM      5  C   UNL     1      -5.430  -5.200   0.620  0.00  0.00    +0.000 C 
ATOM      6  C   UNL     1      -4.761  -6.590   0.618  0.00  0.00    +0.000 C 
ATOM      7  C   UNL     1      -4.963  -4.549  -0.733  0.00  0.00    +0.000 C 
ATOM      8  C   UNL     1      -4.359  -5.462  -1.839  0.00  0.00    +0.000 C 
ATOM      9  C   UNL     1      -3.735  -4.642  -2.976  0.00  0.00    +0.000 C 
ATOM     10  C   UNL     1      -3.995  -3.131  -2.822  0.00  0.00    +0.000 C 
ATOM     11  C   UNL     1      -3.479  -2.236  -3.935  0.00  0.00    +0.000 C 
ATOM     12  C   UNL     1      -2.062  -2.655  -4.383  0.00  0.00    +0.000 C 
ATOM     13  C   UNL     1      -4.413  -2.378  -5.150  0.00  0.00    +0.000 C 
ATOM     14  O   UNL     1      -5.717  -1.925  -4.829  0.00  0.00    +0.000 OA
ATOM     15  C   UNL     1      -6.316  -2.736  -3.828  0.00  0.00    +0.000 C 
ATOM     16  C   UNL     1      -5.480  -2.769  -2.516  0.00  0.00    +0.000 C 
ATOM     17  C   UNL     1      -5.603  -1.397  -1.848  0.00  0.00    +0.000 C 
ATOM     18  C   UNL     1      -4.659  -0.354  -2.421  0.00  0.00    +0.000 C 
ATOM     19  C   UNL     1      -3.444  -0.792  -3.318  0.00  0.00    +0.000 C 
ATOM     20  C   UNL     1      -5.999  -3.784  -1.542  0.00  0.00    +0.000 C 
ATOM     21  C   UNL     1      -7.285  -4.142  -1.515  0.00  0.00    +0.000 C 
ATOM     22  C   UNL     1      -7.692  -5.222  -0.608  0.00  0.00    +0.000 C 
ATOM     23  C   UNL     1      -6.996  -5.029   0.766  0.00  0.00    +0.000 C 
ATOM     24  C   UNL     1      -7.390  -3.583   1.271  0.00  0.00    +0.000 C 
ATOM     25  C   UNL     1      -7.494  -6.112   1.727  0.00  0.00    +0.000 C 
ENDROOT
BRANCH  18  26
ATOM     26  N   UNL     1      -4.312   0.623  -1.358  0.00  0.00    +0.000 N 
ATOM     27  N   UNL     1      -5.070   1.755  -1.309  0.00  0.00    +0.000 NA
ATOM     28  C   UNL     1      -4.432   2.468  -0.387  0.00  0.00    +0.000 A 
ATOM     29  N   UNL     1      -3.362   1.858   0.208  0.00  0.00    +0.000 NA
ATOM     30  C   UNL     1      -3.343   0.655  -0.356  0.00  0.00    +0.000 A 
BRANCH  30  31
ATOM     31  C   UNL     1      -2.403  -0.384   0.110  0.00  0.00    +0.000 A 
ATOM     32  C   UNL     1      -2.846  -1.651   0.500  0.00  0.00    +0.000 A 
ATOM     33  C   UNL     1      -1.916  -2.606   0.924  0.00  0.00    +0.000 A 
ATOM     34  N   UNL     1      -0.591  -2.379   1.029  0.00  0.00    +0.000 NA
ATOM     35  C   UNL     1      -0.177  -1.186   0.604  0.00  0.00    +0.000 A 
ATOM     36  C   UNL     1      -1.035  -0.230   0.087  0.00  0.00    +0.000 A 
ENDBRANCH  30  31
ENDBRANCH  18  26
BRANCH   1  37
ATOM     37  C   UNL     1      -6.702  -7.675   3.673  0.00  0.00    +0.000 C 
ATOM     38  C   UNL     1      -7.818  -8.265   4.565  0.00  0.00    +0.000 C 
BRANCH  37  40
ATOM     39  C   UNL     1      -5.468  -8.629   5.794  0.00  0.00    +0.000 C 
ATOM     40  C   UNL     1      -5.351  -8.111   4.364  0.00  0.00    +0.000 C 
ATOM     41  C   UNL     1      -4.382  -8.966   3.513  0.00  0.00    +0.000 C 
ENDBRANCH  37  40
ENDBRANCH   1  37
BRANCH  25  42
ATOM     42  C   UNL     1      -8.999  -6.266   1.540  0.00  0.00    +0.000 C 
ATOM     43  O   UNL     1      -9.831  -5.410   1.811  0.00  0.00    +0.000 OA
BRANCH  42  44
ATOM     44  O   UNL     1      -9.420  -7.503   1.244  0.00  0.00    +0.000 OA
ATOM     45  H   UNL     1     -10.123  -7.657   1.911  0.00  0.00    +0.000 HD
ENDBRANCH  42  44
ENDBRANCH  25  42
BRANCH  19  46
ATOM     46  O   UNL     1      -3.250   0.078  -4.437  0.00  0.00    +0.000 OA
BRANCH  46  47
ATOM     47  C   UNL     1      -2.289   1.097  -4.212  0.00  0.00    +0.000 C 
BRANCH  47  48
ATOM     48  C   UNL     1      -1.244   1.146  -5.339  0.00  0.00    +0.000 C 
ATOM     49  C   UNL     1      -1.275   2.613  -5.825  0.00  0.00    +0.000 C 
BRANCH  48  50
ATOM     50  C   UNL     1       0.186   0.654  -4.871  0.00  0.00    +0.000 C 
ATOM     51  C   UNL     1       0.674  -0.510  -5.760  0.00  0.00    +0.000 C 
ATOM     52  C   UNL     1       1.233   1.791  -4.965  0.00  0.00    +0.000 C 
ATOM     53  C   UNL     1       0.211   0.148  -3.408  0.00  0.00    +0.000 C 
ENDBRANCH  48  50
BRANCH  48  54
ATOM     54  N   UNL     1      -1.788   0.325  -6.441  0.00  0.00    +0.000 NA
ATOM     55  H   UNL     1      -2.787   0.391  -6.500  0.00  0.00    +0.000 HD
ATOM     56  H   UNL     1      -1.406   0.683  -7.332  0.00  0.00    +0.000 HD
ENDBRANCH  48  54
ENDBRANCH  47  48
ENDBRANCH  46  47
ENDBRANCH  19  46
TORSDOF 11
ENDMDL
