MODEL 1
REMARK VINA RESULT:    -5.564      0.000      0.000
REMARK INTER + INTRA:         -11.821
REMARK INTER:                  -9.142
REMARK INTRA:                  -2.679
REMARK UNBOUND:                -2.679
REMARK  Name = 456557
REMARK  15 active torsions:
REMARK  status: ('A' for Active; 'I' for Inactive)
REMARK    1  A    between atoms: O_2  and  C_17
REMARK    2  A    between atoms: O_3  and  C_18
REMARK    3  A    between atoms: O_4  and  C_22
REMARK    4  A    between atoms: O_7  and  C_27
REMARK    5  A    between atoms: O_10  and  C_35
REMARK    6  A    between atoms: N_11  and  C_19
REMARK    7  A    between atoms: N_12  and  CA_20
REMARK    8  A    between atoms: N_13  and  CA_21
REMARK    9  A    between atoms: C_16  and  CA_20
REMARK   10  A    between atoms: CA_20  and  C_22
REMARK   11  A    between atoms: CA_21  and  C_23
REMARK   12  A    between atoms: CA_21  and  C_24
REMARK   13  A    between atoms: C_23  and  C_27
REMARK   14  A    between atoms: C_23  and  C_28
REMARK   15  A    between atoms: C_27  and  C_30
REMARK                            x       y       z     vdW  Elec       q    Type
REMARK                         _______ _______ _______ _____ _____    ______ ____
ROOT
ATOM      1  CA  UNL     1      96.803 138.926  58.062  0.00  0.00    +0.213 C 
ENDROOT
BRANCH   1   3
ATOM      2  O   UNL     1      97.564 136.714  57.273  0.00  0.00    -0.345 OA
ATOM      3  C   UNL     1      96.407 137.464  57.730  0.00  0.00    +0.183 C 
ATOM      4  C   UNL     1      95.855 136.663  58.918  0.00  0.00    +0.178 C 
ATOM      5  C   UNL     1      97.094 135.990  59.500  0.00  0.00    +0.195 C 
ATOM      6  C   UNL     1      97.831 135.645  58.200  0.00  0.00    +0.255 C 
BRANCH   6   9
ATOM      7  O   UNL     1      99.246 133.667  56.814  0.00  0.00    -0.246 OA
ATOM      8  O   UNL     1     102.973 134.313  59.163  0.00  0.00    -0.268 OA
ATOM      9  N   UNL     1      99.279 135.468  58.267  0.00  0.00    -0.271 N 
ATOM     10  N   UNL     1     101.220 134.290  57.713  0.00  0.00    -0.275 N 
ATOM     11  C   UNL     1      99.872 134.454  57.529  0.00  0.00    +0.331 A 
ATOM     12  C   UNL     1      99.990 136.177  59.215  0.00  0.00    +0.098 A 
ATOM     13  C   UNL     1     101.259 135.883  59.509  0.00  0.00    +0.088 A 
ATOM     14  C   UNL     1     101.904 134.779  58.786  0.00  0.00    +0.254 A 
ATOM     15  H   UNL     1     101.645 133.496  57.261  0.00  0.00    +0.173 HD
ENDBRANCH   6   9
BRANCH   4  16
ATOM     16  O   UNL     1      95.004 135.575  58.478  0.00  0.00    -0.386 OA
ATOM     17  H   UNL     1      94.082 135.895  58.452  0.00  0.00    +0.210 HD
ENDBRANCH   4  16
BRANCH   5  18
ATOM     18  O   UNL     1      96.734 134.835  60.264  0.00  0.00    -0.385 OA
ATOM     19  H   UNL     1      97.507 134.669  60.853  0.00  0.00    +0.210 HD
ENDBRANCH   5  18
ENDBRANCH   1   3
BRANCH   1  21
ATOM     20  O   UNL     1      99.345 139.867  59.053  0.00  0.00    -0.274 OA
ATOM     21  N   UNL     1      97.196 139.232  59.449  0.00  0.00    -0.299 N 
ATOM     22  C   UNL     1      98.479 139.515  59.846  0.00  0.00    +0.231 C 
ATOM     23  H   UNL     1      96.636 138.818  60.199  0.00  0.00    +0.150 HD
BRANCH  22  24
ATOM     24  CA  UNL     1      98.771 139.364  61.361  0.00  0.00    +0.143 C 
BRANCH  24  25
ATOM     25  N   UNL     1     100.150 139.868  61.622  0.00  0.00    -0.320 NA
ATOM     26  H1  UNL     1     100.789 139.469  60.933  0.00  0.00    +0.119 HD
ATOM     27  H2  UNL     1     100.163 140.872  61.438  0.00  0.00    +0.119 HD
ENDBRANCH  24  25
BRANCH  24  28
ATOM     28  C   UNL     1      97.718 140.091  62.238  0.00  0.00    +0.046 C 
ATOM     29  C   UNL     1      98.374 141.048  63.258  0.00  0.00    +0.012 C 
BRANCH  28  30
ATOM     30  C   UNL     1      96.685 139.139  62.920  0.00  0.00    +0.168 C 
BRANCH  30  32
ATOM     31  N   UNL     1      94.691 138.956  61.480  0.00  0.00    -0.254 NA
ATOM     32  C   UNL     1      95.206 139.402  62.657  0.00  0.00    +0.070 A 
ATOM     33  C   UNL     1      94.393 139.946  63.654  0.00  0.00    +0.029 A 
ATOM     34  C   UNL     1      93.026 140.086  63.429  0.00  0.00    +0.049 A 
ATOM     35  C   UNL     1      93.354 139.090  61.294  0.00  0.00    +0.156 A 
ATOM     36  C   UNL     1      92.495 139.639  62.234  0.00  0.00    +0.135 A 
BRANCH  36  37
ATOM     37  O   UNL     1      91.151 139.743  62.046  0.00  0.00    -0.505 OA
ATOM     38  H   UNL     1      90.812 138.894  61.715  0.00  0.00    +0.292 HD
ENDBRANCH  36  37
ENDBRANCH  30  32
BRANCH  30  39
ATOM     39  O   UNL     1      96.957 137.793  62.489  0.00  0.00    -0.385 OA
ATOM     40  H   UNL     1      96.080 137.384  62.351  0.00  0.00    +0.210 HD
ENDBRANCH  30  39
ENDBRANCH  28  30
ENDBRANCH  24  28
ENDBRANCH  22  24
ENDBRANCH   1  21
BRANCH   1  42
ATOM     41  OXT UNL     1      95.075 139.875  56.612  0.00  0.00    -0.249 OA
ATOM     42  C   UNL     1      95.608 139.829  57.715  0.00  0.00    +0.328 C 
BRANCH  42  43
ATOM     43  O   UNL     1      95.173 140.574  58.761  0.00  0.00    -0.479 OA
ATOM     44  H   UNL     1      94.729 141.410  58.484  0.00  0.00    +0.295 HD
ENDBRANCH  42  43
ENDBRANCH   1  42
TORSDOF 14
ENDMDL
MODEL 2
REMARK VINA RESULT:    -5.459      2.382      4.005
REMARK INTER + INTRA:         -11.648
REMARK INTER:                  -9.305
REMARK INTRA:                  -2.343
REMARK UNBOUND:                -2.679
REMARK  Name = 456557
REMARK  15 active torsions:
REMARK  status: ('A' for Active; 'I' for Inactive)
REMARK    1  A    between atoms: O_2  and  C_17
REMARK    2  A    between atoms: O_3  and  C_18
REMARK    3  A    between atoms: O_4  and  C_22
REMARK    4  A    between atoms: O_7  and  C_27
REMARK    5  A    between atoms: O_10  and  C_35
REMARK    6  A    between atoms: N_11  and  C_19
REMARK    7  A    between atoms: N_12  and  CA_20
REMARK    8  A    between atoms: N_13  and  CA_21
REMARK    9  A    between atoms: C_16  and  CA_20
REMARK   10  A    between atoms: CA_20  and  C_22
REMARK   11  A    between atoms: CA_21  and  C_23
REMARK   12  A    between atoms: CA_21  and  C_24
REMARK   13  A    between atoms: C_23  and  C_27
REMARK   14  A    between atoms: C_23  and  C_28
REMARK   15  A    between atoms: C_27  and  C_30
REMARK                            x       y       z     vdW  Elec       q    Type
REMARK                         _______ _______ _______ _____ _____    ______ ____
ROOT
ATOM      1  CA  UNL     1      98.546 136.396  59.476  0.00  0.00    +0.213 C 
ENDROOT
BRANCH   1   3
ATOM      2  O   UNL     1      98.903 134.470  57.975  0.00  0.00    -0.345 OA
ATOM      3  C   UNL     1      99.464 135.207  59.093  0.00  0.00    +0.183 C 
ATOM      4  C   UNL     1     100.876 135.606  58.640  0.00  0.00    +0.178 C 
ATOM      5  C   UNL     1     100.740 135.737  57.127  0.00  0.00    +0.195 C 
ATOM      6  C   UNL     1      99.800 134.558  56.852  0.00  0.00    +0.255 C 
BRANCH   6   9
ATOM      7  O   UNL     1     100.721 133.846  54.306  0.00  0.00    -0.246 OA
ATOM      8  O   UNL     1      97.208 135.642  52.242  0.00  0.00    -0.268 OA
ATOM      9  N   UNL     1      98.988 134.604  55.639  0.00  0.00    -0.271 N 
ATOM     10  N   UNL     1      98.760 134.379  53.325  0.00  0.00    -0.275 N 
ATOM     11  C   UNL     1      99.552 134.220  54.431  0.00  0.00    +0.331 A 
ATOM     12  C   UNL     1      97.753 135.221  55.692  0.00  0.00    +0.098 A 
ATOM     13  C   UNL     1      97.073 135.530  54.586  0.00  0.00    +0.088 A 
ATOM     14  C   UNL     1      97.663 135.187  53.285  0.00  0.00    +0.254 A 
ATOM     15  H   UNL     1      99.190 134.198  52.431  0.00  0.00    +0.173 HD
ENDBRANCH   6   9
BRANCH   4  16
ATOM     16  O   UNL     1     101.826 134.530  58.845  0.00  0.00    -0.386 OA
ATOM     17  H   UNL     1     101.330 133.696  58.948  0.00  0.00    +0.210 HD
ENDBRANCH   4  16
BRANCH   5  18
ATOM     18  O   UNL     1     102.014 135.599  56.489  0.00  0.00    -0.385 OA
ATOM     19  H   UNL     1     101.827 135.110  55.653  0.00  0.00    +0.210 HD
ENDBRANCH   5  18
ENDBRANCH   1   3
BRANCH   1  21
ATOM     20  O   UNL     1     100.132 138.705  60.172  0.00  0.00    -0.274 OA
ATOM     21  N   UNL     1      98.741 137.016  60.799  0.00  0.00    -0.299 N 
ATOM     22  C   UNL     1      99.648 138.013  61.061  0.00  0.00    +0.231 C 
ATOM     23  H   UNL     1      98.542 136.441  61.621  0.00  0.00    +0.150 HD
BRANCH  22  24
ATOM     24  CA  UNL     1     100.025 138.214  62.551  0.00  0.00    +0.143 C 
BRANCH  24  25
ATOM     25  N   UNL     1     101.510 138.331  62.642  0.00  0.00    -0.320 NA
ATOM     26  H1  UNL     1     101.922 138.077  61.744  0.00  0.00    +0.119 HD
ATOM     27  H2  UNL     1     101.746 139.316  62.768  0.00  0.00    +0.119 HD
ENDBRANCH  24  25
BRANCH  24  28
ATOM     28  C   UNL     1      99.313 139.441  63.177  0.00  0.00    +0.046 C 
ATOM     29  C   UNL     1     100.281 140.313  64.007  0.00  0.00    +0.012 C 
BRANCH  28  30
ATOM     30  C   UNL     1      98.020 139.091  63.979  0.00  0.00    +0.168 C 
BRANCH  30  32
ATOM     31  N   UNL     1      96.521 138.476  62.120  0.00  0.00    -0.254 NA
ATOM     32  C   UNL     1      96.686 139.212  63.250  0.00  0.00    +0.070 A 
ATOM     33  C   UNL     1      95.632 139.937  63.813  0.00  0.00    +0.029 A 
ATOM     34  C   UNL     1      94.392 139.953  63.182  0.00  0.00    +0.049 A 
ATOM     35  C   UNL     1      95.298 138.498  61.534  0.00  0.00    +0.156 A 
ATOM     36  C   UNL     1      94.218 139.210  62.030  0.00  0.00    +0.135 A 
BRANCH  36  37
ATOM     37  O   UNL     1      92.987 139.202  61.448  0.00  0.00    -0.505 OA
ATOM     38  H   UNL     1      92.668 138.285  61.397  0.00  0.00    +0.292 HD
ENDBRANCH  36  37
ENDBRANCH  30  32
BRANCH  30  39
ATOM     39  O   UNL     1      98.127 137.730  64.438  0.00  0.00    -0.385 OA
ATOM     40  H   UNL     1      99.050 137.467  64.250  0.00  0.00    +0.210 HD
ENDBRANCH  30  39
ENDBRANCH  28  30
ENDBRANCH  24  28
ENDBRANCH  22  24
ENDBRANCH   1  21
BRANCH   1  42
ATOM     41  OXT UNL     1      96.242 136.362  58.649  0.00  0.00    -0.249 OA
ATOM     42  C   UNL     1      97.090 135.908  59.411  0.00  0.00    +0.328 C 
BRANCH  42  43
ATOM     43  O   UNL     1      96.819 134.898  60.274  0.00  0.00    -0.479 OA
ATOM     44  H   UNL     1      97.433 134.132  60.182  0.00  0.00    +0.295 HD
ENDBRANCH  42  43
ENDBRANCH   1  42
TORSDOF 14
ENDMDL
MODEL 3
REMARK VINA RESULT:    -5.351     11.130     13.842
REMARK INTER + INTRA:         -11.472
REMARK INTER:                  -9.450
REMARK INTRA:                  -2.022
REMARK UNBOUND:                -2.679
REMARK  Name = 456557
REMARK  15 active torsions:
REMARK  status: ('A' for Active; 'I' for Inactive)
REMARK    1  A    between atoms: O_2  and  C_17
REMARK    2  A    between atoms: O_3  and  C_18
REMARK    3  A    between atoms: O_4  and  C_22
REMARK    4  A    between atoms: O_7  and  C_27
REMARK    5  A    between atoms: O_10  and  C_35
REMARK    6  A    between atoms: N_11  and  C_19
REMARK    7  A    between atoms: N_12  and  CA_20
REMARK    8  A    between atoms: N_13  and  CA_21
REMARK    9  A    between atoms: C_16  and  CA_20
REMARK   10  A    between atoms: CA_20  and  C_22
REMARK   11  A    between atoms: CA_21  and  C_23
REMARK   12  A    between atoms: CA_21  and  C_24
REMARK   13  A    between atoms: C_23  and  C_27
REMARK   14  A    between atoms: C_23  and  C_28
REMARK   15  A    between atoms: C_27  and  C_30
REMARK                            x       y       z     vdW  Elec       q    Type
REMARK                         _______ _______ _______ _____ _____    ______ ____
ROOT
ATOM      1  CA  UNL     1     103.958 132.496  70.792  0.00  0.00    +0.213 C 
ENDROOT
BRANCH   1   3
ATOM      2  O   UNL     1     102.498 130.696  71.641  0.00  0.00    -0.345 OA
ATOM      3  C   UNL     1     103.016 131.317  70.434  0.00  0.00    +0.183 C 
ATOM      4  C   UNL     1     101.774 131.712  69.622  0.00  0.00    +0.178 C 
ATOM      5  C   UNL     1     100.720 131.977  70.692  0.00  0.00    +0.195 C 
ATOM      6  C   UNL     1     101.067 130.854  71.676  0.00  0.00    +0.255 C 
BRANCH   6   9
ATOM      7  O   UNL     1      98.600 130.064  72.736  0.00  0.00    -0.246 OA
ATOM      8  O   UNL     1      99.188 132.352  76.511  0.00  0.00    -0.268 OA
ATOM      9  N   UNL     1     100.676 131.029  73.072  0.00  0.00    -0.271 N 
ATOM     10  N   UNL     1      99.093 130.873  74.785  0.00  0.00    -0.275 N 
ATOM     11  C   UNL     1      99.426 130.591  73.485  0.00  0.00    +0.331 A 
ATOM     12  C   UNL     1     101.472 131.806  73.890  0.00  0.00    +0.098 A 
ATOM     13  C   UNL     1     101.055 132.222  75.089  0.00  0.00    +0.088 A 
ATOM     14  C   UNL     1      99.715 131.823  75.539  0.00  0.00    +0.254 A 
ATOM     15  H   UNL     1      98.152 130.650  75.069  0.00  0.00    +0.173 HD
ENDBRANCH   6   9
BRANCH   4  16
ATOM     16  O   UNL     1     101.263 130.595  68.853  0.00  0.00    -0.386 OA
ATOM     17  H   UNL     1     101.893 130.401  68.133  0.00  0.00    +0.210 HD
ENDBRANCH   4  16
BRANCH   5  18
ATOM     18  O   UNL     1      99.402 131.857  70.146  0.00  0.00    -0.385 OA
ATOM     19  H   UNL     1      99.172 132.764  69.836  0.00  0.00    +0.210 HD
ENDBRANCH   5  18
ENDBRANCH   1   3
BRANCH   1  21
ATOM     20  O   UNL     1     103.328 135.309  70.928  0.00  0.00    -0.274 OA
ATOM     21  N   UNL     1     104.171 133.539  69.772  0.00  0.00    -0.299 N 
ATOM     22  C   UNL     1     103.685 134.820  69.862  0.00  0.00    +0.231 C 
ATOM     23  H   UNL     1     104.290 133.232  68.803  0.00  0.00    +0.150 HD
BRANCH  22  24
ATOM     24  CA  UNL     1     103.616 135.615  68.533  0.00  0.00    +0.143 C 
BRANCH  24  25
ATOM     25  N   UNL     1     104.471 134.917  67.529  0.00  0.00    -0.320 NA
ATOM     26  H1  UNL     1     103.916 134.718  66.696  0.00  0.00    +0.119 HD
ATOM     27  H2  UNL     1     105.190 135.570  67.213  0.00  0.00    +0.119 HD
ENDBRANCH  24  25
BRANCH  24  28
ATOM     28  C   UNL     1     102.160 135.787  68.027  0.00  0.00    +0.046 C 
ATOM     29  C   UNL     1     101.452 134.429  67.825  0.00  0.00    +0.012 C 
BRANCH  28  30
ATOM     30  C   UNL     1     102.023 136.703  66.770  0.00  0.00    +0.168 C 
BRANCH  30  32
ATOM     31  N   UNL     1     104.063 137.858  66.004  0.00  0.00    -0.254 NA
ATOM     32  C   UNL     1     102.902 137.947  66.706  0.00  0.00    +0.070 A 
ATOM     33  C   UNL     1     102.451 139.163  67.226  0.00  0.00    +0.029 A 
ATOM     34  C   UNL     1     103.225 140.309  67.070  0.00  0.00    +0.049 A 
ATOM     35  C   UNL     1     104.789 138.993  65.854  0.00  0.00    +0.156 A 
ATOM     36  C   UNL     1     104.408 140.226  66.361  0.00  0.00    +0.135 A 
BRANCH  36  37
ATOM     37  O   UNL     1     105.133 141.364  66.179  0.00  0.00    -0.505 OA
ATOM     38  H   UNL     1     105.828 141.408  66.857  0.00  0.00    +0.292 HD
ENDBRANCH  36  37
ENDBRANCH  30  32
BRANCH  30  39
ATOM     39  O   UNL     1     102.323 135.915  65.602  0.00  0.00    -0.385 OA
ATOM     40  H   UNL     1     101.738 136.262  64.900  0.00  0.00    +0.210 HD
ENDBRANCH  30  39
ENDBRANCH  28  30
ENDBRANCH  24  28
ENDBRANCH  22  24
ENDBRANCH   1  21
BRANCH   1  42
ATOM     41  OXT UNL     1     106.252 132.550  71.645  0.00  0.00    -0.249 OA
ATOM     42  C   UNL     1     105.336 131.910  71.139  0.00  0.00    +0.328 C 
BRANCH  42  43
ATOM     43  O   UNL     1     105.452 130.590  70.849  0.00  0.00    -0.479 OA
ATOM     44  H   UNL     1     104.647 130.215  70.421  0.00  0.00    +0.295 HD
ENDBRANCH  42  43
ENDBRANCH   1  42
TORSDOF 14
ENDMDL
MODEL 4
REMARK VINA RESULT:    -5.344      4.036      7.849
REMARK INTER + INTRA:         -11.460
REMARK INTER:                  -8.925
REMARK INTRA:                  -2.535
REMARK UNBOUND:                -2.679
REMARK  Name = 456557
REMARK  15 active torsions:
REMARK  status: ('A' for Active; 'I' for Inactive)
REMARK    1  A    between atoms: O_2  and  C_17
REMARK    2  A    between atoms: O_3  and  C_18
REMARK    3  A    between atoms: O_4  and  C_22
REMARK    4  A    between atoms: O_7  and  C_27
REMARK    5  A    between atoms: O_10  and  C_35
REMARK    6  A    between atoms: N_11  and  C_19
REMARK    7  A    between atoms: N_12  and  CA_20
REMARK    8  A    between atoms: N_13  and  CA_21
REMARK    9  A    between atoms: C_16  and  CA_20
REMARK   10  A    between atoms: CA_20  and  C_22
REMARK   11  A    between atoms: CA_21  and  C_23
REMARK   12  A    between atoms: CA_21  and  C_24
REMARK   13  A    between atoms: C_23  and  C_27
REMARK   14  A    between atoms: C_23  and  C_28
REMARK   15  A    between atoms: C_27  and  C_30
REMARK                            x       y       z     vdW  Elec       q    Type
REMARK                         _______ _______ _______ _____ _____    ______ ____
ROOT
ATOM      1  CA  UNL     1      99.706 138.246  62.387  0.00  0.00    +0.213 C 
ENDROOT
BRANCH   1   3
ATOM      2  O   UNL     1     100.937 137.602  64.427  0.00  0.00    -0.345 OA
ATOM      3  C   UNL     1      99.623 137.932  63.903  0.00  0.00    +0.183 C 
ATOM      4  C   UNL     1      99.127 139.096  64.773  0.00  0.00    +0.178 C 
ATOM      5  C   UNL     1     100.413 139.804  65.187  0.00  0.00    +0.195 C 
ATOM      6  C   UNL     1     101.315 138.585  65.409  0.00  0.00    +0.255 C 
BRANCH   6   9
ATOM      7  O   UNL     1     103.209 137.232  66.966  0.00  0.00    -0.246 OA
ATOM      8  O   UNL     1     106.522 139.962  65.784  0.00  0.00    -0.268 OA
ATOM      9  N   UNL     1     102.759 138.780  65.306  0.00  0.00    -0.271 N 
ATOM     10  N   UNL     1     104.936 138.351  66.039  0.00  0.00    -0.275 N 
ATOM     11  C   UNL     1     103.603 138.047  66.128  0.00  0.00    +0.331 A 
ATOM     12  C   UNL     1     103.232 139.831  64.545  0.00  0.00    +0.098 A 
ATOM     13  C   UNL     1     104.505 140.229  64.608  0.00  0.00    +0.088 A 
ATOM     14  C   UNL     1     105.417 139.510  65.508  0.00  0.00    +0.254 A 
ATOM     15  H   UNL     1     105.548 137.897  66.700  0.00  0.00    +0.173 HD
ENDBRANCH   6   9
BRANCH   4  16
ATOM     16  O   UNL     1      98.539 138.623  66.011  0.00  0.00    -0.386 OA
ATOM     17  H   UNL     1      97.576 138.533  65.881  0.00  0.00    +0.210 HD
ENDBRANCH   4  16
BRANCH   5  18
ATOM     18  O   UNL     1     100.209 140.574  66.376  0.00  0.00    -0.385 OA
ATOM     19  H   UNL     1     100.595 140.028  67.101  0.00  0.00    +0.210 HD
ENDBRANCH   5  18
ENDBRANCH   1   3
BRANCH   1  21
ATOM     20  O   UNL     1      97.488 139.705  61.255  0.00  0.00    -0.274 OA
ATOM     21  N   UNL     1      98.620 137.749  61.523  0.00  0.00    -0.299 N 
ATOM     22  C   UNL     1      97.514 138.483  61.169  0.00  0.00    +0.231 C 
ATOM     23  H   UNL     1      98.436 136.743  61.531  0.00  0.00    +0.150 HD
BRANCH  22  24
ATOM     24  CA  UNL     1      96.298 137.672  60.654  0.00  0.00    +0.143 C 
BRANCH  24  25
ATOM     25  N   UNL     1      95.079 138.521  60.799  0.00  0.00    -0.320 NA
ATOM     26  H1  UNL     1      94.896 138.998  59.915  0.00  0.00    +0.119 HD
ATOM     27  H2  UNL     1      94.275 137.905  60.933  0.00  0.00    +0.119 HD
ENDBRANCH  24  25
BRANCH  24  28
ATOM     28  C   UNL     1      96.491 137.189  59.193  0.00  0.00    +0.046 C 
ATOM     29  C   UNL     1      95.251 137.478  58.318  0.00  0.00    +0.012 C 
BRANCH  28  30
ATOM     30  C   UNL     1      96.953 135.703  59.066  0.00  0.00    +0.168 C 
BRANCH  30  32
ATOM     31  N   UNL     1      99.402 135.983  59.138  0.00  0.00    -0.254 NA
ATOM     32  C   UNL     1      98.339 135.445  58.484  0.00  0.00    +0.070 A 
ATOM     33  C   UNL     1      98.506 134.568  57.409  0.00  0.00    +0.029 A 
ATOM     34  C   UNL     1      99.788 134.269  56.957  0.00  0.00    +0.049 A 
ATOM     35  C   UNL     1     100.640 135.662  58.685  0.00  0.00    +0.156 A 
ATOM     36  C   UNL     1     100.874 134.815  57.613  0.00  0.00    +0.135 A 
BRANCH  36  37
ATOM     37  O   UNL     1     102.122 134.479  57.186  0.00  0.00    -0.505 OA
ATOM     38  H   UNL     1     102.719 134.442  57.952  0.00  0.00    +0.292 HD
ENDBRANCH  36  37
ENDBRANCH  30  32
BRANCH  30  39
ATOM     39  O   UNL     1      96.930 135.108  60.377  0.00  0.00    -0.385 OA
ATOM     40  H   UNL     1      96.055 135.338  60.748  0.00  0.00    +0.210 HD
ENDBRANCH  30  39
ENDBRANCH  28  30
ENDBRANCH  24  28
ENDBRANCH  22  24
ENDBRANCH   1  21
BRANCH   1  42
ATOM     41  OXT UNL     1     101.966 138.324  61.452  0.00  0.00    -0.249 OA
ATOM     42  C   UNL     1     101.021 137.654  61.854  0.00  0.00    +0.328 C 
BRANCH  42  43
ATOM     43  O   UNL     1     101.054 136.299  61.881  0.00  0.00    -0.479 OA
ATOM     44  H   UNL     1     101.527 135.938  62.667  0.00  0.00    +0.295 HD
ENDBRANCH  42  43
ENDBRANCH   1  42
TORSDOF 14
ENDMDL
MODEL 5
REMARK VINA RESULT:    -5.278     12.022     15.110
REMARK INTER + INTRA:         -11.351
REMARK INTER:                  -9.656
REMARK INTRA:                  -1.695
REMARK UNBOUND:                -2.679
REMARK  Name = 456557
REMARK  15 active torsions:
REMARK  status: ('A' for Active; 'I' for Inactive)
REMARK    1  A    between atoms: O_2  and  C_17
REMARK    2  A    between atoms: O_3  and  C_18
REMARK    3  A    between atoms: O_4  and  C_22
REMARK    4  A    between atoms: O_7  and  C_27
REMARK    5  A    between atoms: O_10  and  C_35
REMARK    6  A    between atoms: N_11  and  C_19
REMARK    7  A    between atoms: N_12  and  CA_20
REMARK    8  A    between atoms: N_13  and  CA_21
REMARK    9  A    between atoms: C_16  and  CA_20
REMARK   10  A    between atoms: CA_20  and  C_22
REMARK   11  A    between atoms: CA_21  and  C_23
REMARK   12  A    between atoms: CA_21  and  C_24
REMARK   13  A    between atoms: C_23  and  C_27
REMARK   14  A    between atoms: C_23  and  C_28
REMARK   15  A    between atoms: C_27  and  C_30
REMARK                            x       y       z     vdW  Elec       q    Type
REMARK                         _______ _______ _______ _____ _____    ______ ____
ROOT
ATOM      1  CA  UNL     1      97.672 131.533  72.588  0.00  0.00    +0.213 C 
ENDROOT
BRANCH   1   3
ATOM      2  O   UNL     1      95.396 130.700  72.120  0.00  0.00    -0.345 OA
ATOM      3  C   UNL     1      96.593 131.253  71.510  0.00  0.00    +0.183 C 
ATOM      4  C   UNL     1      96.115 132.494  70.743  0.00  0.00    +0.178 C 
ATOM      5  C   UNL     1      94.910 132.968  71.549  0.00  0.00    +0.195 C 
ATOM      6  C   UNL     1      94.299 131.611  71.915  0.00  0.00    +0.255 C 
BRANCH   6   9
ATOM      7  O   UNL     1      91.943 130.108  72.086  0.00  0.00    -0.246 OA
ATOM      8  O   UNL     1      90.622 132.113  75.837  0.00  0.00    -0.268 OA
ATOM      9  N   UNL     1      93.445 131.548  73.099  0.00  0.00    -0.271 N 
ATOM     10  N   UNL     1      91.503 130.826  74.180  0.00  0.00    -0.275 N 
ATOM     11  C   UNL     1      92.302 130.762  73.069  0.00  0.00    +0.331 A 
ATOM     12  C   UNL     1      93.685 132.427  74.136  0.00  0.00    +0.098 A 
ATOM     13  C   UNL     1      92.806 132.607  75.125  0.00  0.00    +0.088 A 
ATOM     14  C   UNL     1      91.559 131.832  75.098  0.00  0.00    +0.254 A 
ATOM     15  H   UNL     1      90.622 130.339  74.133  0.00  0.00    +0.173 HD
ENDBRANCH   6   9
BRANCH   4  16
ATOM     16  O   UNL     1      95.586 132.143  69.439  0.00  0.00    -0.386 OA
ATOM     17  H   UNL     1      94.821 132.720  69.251  0.00  0.00    +0.210 HD
ENDBRANCH   4  16
BRANCH   5  18
ATOM     18  O   UNL     1      94.044 133.773  70.741  0.00  0.00    -0.385 OA
ATOM     19  H   UNL     1      93.264 133.959  71.314  0.00  0.00    +0.210 HD
ENDBRANCH   5  18
ENDBRANCH   1   3
BRANCH   1  21
ATOM     20  O   UNL     1     100.228 132.747  73.153  0.00  0.00    -0.274 OA
ATOM     21  N   UNL     1      99.022 130.985  72.367  0.00  0.00    -0.299 N 
ATOM     22  C   UNL     1     100.183 131.704  72.512  0.00  0.00    +0.231 C 
ATOM     23  H   UNL     1      99.115 130.223  71.691  0.00  0.00    +0.150 HD
BRANCH  22  24
ATOM     24  CA  UNL     1     101.437 131.117  71.815  0.00  0.00    +0.143 C 
BRANCH  24  25
ATOM     25  N   UNL     1     101.269 129.637  71.726  0.00  0.00    -0.320 NA
ATOM     26  H1  UNL     1     102.035 129.245  71.177  0.00  0.00    +0.119 HD
ATOM     27  H2  UNL     1     101.392 129.245  72.661  0.00  0.00    +0.119 HD
ENDBRANCH  24  25
BRANCH  24  28
ATOM     28  C   UNL     1     101.686 131.751  70.422  0.00  0.00    +0.046 C 
ATOM     29  C   UNL     1     101.997 130.687  69.347  0.00  0.00    +0.012 C 
BRANCH  28  30
ATOM     30  C   UNL     1     102.744 132.900  70.421  0.00  0.00    +0.168 C 
BRANCH  30  32
ATOM     31  N   UNL     1     103.852 134.557  68.969  0.00  0.00    -0.254 NA
ATOM     32  C   UNL     1     102.703 133.893  69.264  0.00  0.00    +0.070 A 
ATOM     33  C   UNL     1     101.568 133.994  68.455  0.00  0.00    +0.029 A 
ATOM     34  C   UNL     1     101.587 134.834  67.345  0.00  0.00    +0.049 A 
ATOM     35  C   UNL     1     103.846 135.355  67.873  0.00  0.00    +0.156 A 
ATOM     36  C   UNL     1     102.749 135.516  67.040  0.00  0.00    +0.135 A 
BRANCH  36  37
ATOM     37  O   UNL     1     102.765 136.299  65.927  0.00  0.00    -0.505 OA
ATOM     38  H   UNL     1     101.899 136.243  65.489  0.00  0.00    +0.292 HD
ENDBRANCH  36  37
ENDBRANCH  30  32
BRANCH  30  39
ATOM     39  O   UNL     1     102.587 133.660  71.634  0.00  0.00    -0.385 OA
ATOM     40  H   UNL     1     102.809 133.040  72.357  0.00  0.00    +0.210 HD
ENDBRANCH  30  39
ENDBRANCH  28  30
ENDBRANCH  24  28
ENDBRANCH  22  24
ENDBRANCH   1  21
BRANCH   1  42
ATOM     41  OXT UNL     1      96.785 131.654  74.867  0.00  0.00    -0.249 OA
ATOM     42  C   UNL     1      97.163 130.966  73.924  0.00  0.00    +0.328 C 
BRANCH  42  43
ATOM     43  O   UNL     1      97.151 129.611  73.967  0.00  0.00    -0.479 OA
ATOM     44  H   UNL     1      98.047 129.218  74.082  0.00  0.00    +0.295 HD
ENDBRANCH  42  43
ENDBRANCH   1  42
TORSDOF 14
ENDMDL
MODEL 6
REMARK VINA RESULT:    -5.250     13.030     16.040
REMARK INTER + INTRA:         -11.306
REMARK INTER:                  -9.256
REMARK INTRA:                  -2.050
REMARK UNBOUND:                -2.679
REMARK  Name = 456557
REMARK  15 active torsions:
REMARK  status: ('A' for Active; 'I' for Inactive)
REMARK    1  A    between atoms: O_2  and  C_17
REMARK    2  A    between atoms: O_3  and  C_18
REMARK    3  A    between atoms: O_4  and  C_22
REMARK    4  A    between atoms: O_7  and  C_27
REMARK    5  A    between atoms: O_10  and  C_35
REMARK    6  A    between atoms: N_11  and  C_19
REMARK    7  A    between atoms: N_12  and  CA_20
REMARK    8  A    between atoms: N_13  and  CA_21
REMARK    9  A    between atoms: C_16  and  CA_20
REMARK   10  A    between atoms: CA_20  and  C_22
REMARK   11  A    between atoms: CA_21  and  C_23
REMARK   12  A    between atoms: CA_21  and  C_24
REMARK   13  A    between atoms: C_23  and  C_27
REMARK   14  A    between atoms: C_23  and  C_28
REMARK   15  A    between atoms: C_27  and  C_30
REMARK                            x       y       z     vdW  Elec       q    Type
REMARK                         _______ _______ _______ _____ _____    ______ ____
ROOT
ATOM      1  CA  UNL     1      96.786 131.103  74.648  0.00  0.00    +0.213 C 
ENDROOT
BRANCH   1   3
ATOM      2  O   UNL     1      94.917 130.584  73.121  0.00  0.00    -0.345 OA
ATOM      3  C   UNL     1      96.362 130.703  73.211  0.00  0.00    +0.183 C 
ATOM      4  C   UNL     1      96.747 131.716  72.123  0.00  0.00    +0.178 C 
ATOM      5  C   UNL     1      95.522 132.618  72.026  0.00  0.00    +0.195 C 
ATOM      6  C   UNL     1      94.418 131.567  72.196  0.00  0.00    +0.255 C 
BRANCH   6   9
ATOM      7  O   UNL     1      91.999 130.241  71.719  0.00  0.00    -0.246 OA
ATOM      8  O   UNL     1      89.534 133.678  73.111  0.00  0.00    -0.268 OA
ATOM      9  N   UNL     1      93.120 132.019  72.687  0.00  0.00    -0.271 N 
ATOM     10  N   UNL     1      90.795 131.809  72.808  0.00  0.00    -0.275 N 
ATOM     11  C   UNL     1      91.986 131.274  72.393  0.00  0.00    +0.331 A 
ATOM     12  C   UNL     1      93.026 133.276  73.253  0.00  0.00    +0.098 A 
ATOM     13  C   UNL     1      91.847 133.857  73.487  0.00  0.00    +0.088 A 
ATOM     14  C   UNL     1      90.625 133.120  73.138  0.00  0.00    +0.254 A 
ATOM     15  H   UNL     1      89.958 131.330  72.515  0.00  0.00    +0.173 HD
ENDBRANCH   6   9
BRANCH   4  16
ATOM     16  O   UNL     1      96.858 131.085  70.822  0.00  0.00    -0.386 OA
ATOM     17  H   UNL     1      95.979 130.748  70.566  0.00  0.00    +0.210 HD
ENDBRANCH   4  16
BRANCH   5  18
ATOM     18  O   UNL     1      95.476 133.279  70.757  0.00  0.00    -0.385 OA
ATOM     19  H   UNL     1      95.647 132.568  70.095  0.00  0.00    +0.210 HD
ENDBRANCH   5  18
ENDBRANCH   1   3
BRANCH   1  21
ATOM     20  O   UNL     1      99.028 132.837  75.194  0.00  0.00    -0.274 OA
ATOM     21  N   UNL     1      98.146 130.742  75.087  0.00  0.00    -0.299 N 
ATOM     22  C   UNL     1      99.196 131.623  75.161  0.00  0.00    +0.231 C 
ATOM     23  H   UNL     1      98.452 129.779  74.925  0.00  0.00    +0.150 HD
BRANCH  22  24
ATOM     24  CA  UNL     1     100.611 130.992  75.200  0.00  0.00    +0.143 C 
BRANCH  24  25
ATOM     25  N   UNL     1     100.482 129.594  75.705  0.00  0.00    -0.320 NA
ATOM     26  H1  UNL     1     100.538 128.946  74.918  0.00  0.00    +0.119 HD
ATOM     27  H2  UNL     1     101.304 129.383  76.274  0.00  0.00    +0.119 HD
ENDBRANCH  24  25
BRANCH  24  28
ATOM     28  C   UNL     1     101.315 131.041  73.819  0.00  0.00    +0.046 C 
ATOM     29  C   UNL     1     102.014 132.396  73.573  0.00  0.00    +0.012 C 
BRANCH  28  30
ATOM     30  C   UNL     1     100.401 130.637  72.619  0.00  0.00    +0.168 C 
BRANCH  30  32
ATOM     31  N   UNL     1      99.833 132.402  70.994  0.00  0.00    -0.254 NA
ATOM     32  C   UNL     1     100.633 131.343  71.288  0.00  0.00    +0.070 A 
ATOM     33  C   UNL     1     101.723 131.001  70.483  0.00  0.00    +0.029 A 
ATOM     34  C   UNL     1     101.976 131.724  69.321  0.00  0.00    +0.049 A 
ATOM     35  C   UNL     1     100.112 133.098  69.863  0.00  0.00    +0.156 A 
ATOM     36  C   UNL     1     101.164 132.799  69.012  0.00  0.00    +0.135 A 
BRANCH  36  37
ATOM     37  O   UNL     1     101.450 133.523  67.896  0.00  0.00    -0.505 OA
ATOM     38  H   UNL     1     102.378 133.810  67.934  0.00  0.00    +0.292 HD
ENDBRANCH  36  37
ENDBRANCH  30  32
BRANCH  30  39
ATOM     39  O   UNL     1     100.565 129.226  72.382  0.00  0.00    -0.385 OA
ATOM     40  H   UNL     1      99.681 128.904  72.116  0.00  0.00    +0.210 HD
ENDBRANCH  30  39
ENDBRANCH  28  30
ENDBRANCH  24  28
ENDBRANCH  22  24
ENDBRANCH   1  21
BRANCH   1  42
ATOM     41  OXT UNL     1      95.292 131.028  76.585  0.00  0.00    -0.249 OA
ATOM     42  C   UNL     1      95.800 130.450  75.630  0.00  0.00    +0.328 C 
BRANCH  42  43
ATOM     43  O   UNL     1      95.519 129.157  75.334  0.00  0.00    -0.479 OA
ATOM     44  H   UNL     1      95.144 129.037  74.430  0.00  0.00    +0.295 HD
ENDBRANCH  42  43
ENDBRANCH   1  42
TORSDOF 14
ENDMDL
MODEL 7
REMARK VINA RESULT:    -5.236      2.230      7.774
REMARK INTER + INTRA:         -11.282
REMARK INTER:                  -8.448
REMARK INTRA:                  -2.835
REMARK UNBOUND:                -2.679
REMARK  Name = 456557
REMARK  15 active torsions:
REMARK  status: ('A' for Active; 'I' for Inactive)
REMARK    1  A    between atoms: O_2  and  C_17
REMARK    2  A    between atoms: O_3  and  C_18
REMARK    3  A    between atoms: O_4  and  C_22
REMARK    4  A    between atoms: O_7  and  C_27
REMARK    5  A    between atoms: O_10  and  C_35
REMARK    6  A    between atoms: N_11  and  C_19
REMARK    7  A    between atoms: N_12  and  CA_20
REMARK    8  A    between atoms: N_13  and  CA_21
REMARK    9  A    between atoms: C_16  and  CA_20
REMARK   10  A    between atoms: CA_20  and  C_22
REMARK   11  A    between atoms: CA_21  and  C_23
REMARK   12  A    between atoms: CA_21  and  C_24
REMARK   13  A    between atoms: C_23  and  C_27
REMARK   14  A    between atoms: C_23  and  C_28
REMARK   15  A    between atoms: C_27  and  C_30
REMARK                            x       y       z     vdW  Elec       q    Type
REMARK                         _______ _______ _______ _____ _____    ______ ____
ROOT
ATOM      1  CA  UNL     1      98.319 138.141  57.070  0.00  0.00    +0.213 C 
ENDROOT
BRANCH   1   3
ATOM      2  O   UNL     1      97.840 138.580  59.452  0.00  0.00    -0.345 OA
ATOM      3  C   UNL     1      98.676 137.815  58.544  0.00  0.00    +0.183 C 
ATOM      4  C   UNL     1      98.465 136.348  58.946  0.00  0.00    +0.178 C 
ATOM      5  C   UNL     1      97.041 136.330  59.490  0.00  0.00    +0.195 C 
ATOM      6  C   UNL     1      97.033 137.675  60.227  0.00  0.00    +0.255 C 
BRANCH   6   9
ATOM      7  O   UNL     1      96.170 138.657  62.702  0.00  0.00    -0.246 OA
ATOM      8  O   UNL     1      91.955 139.129  61.346  0.00  0.00    -0.268 OA
ATOM      9  N   UNL     1      95.741 138.317  60.454  0.00  0.00    -0.271 N 
ATOM     10  N   UNL     1      94.161 139.278  61.883  0.00  0.00    -0.275 N 
ATOM     11  C   UNL     1      95.425 138.772  61.726  0.00  0.00    +0.331 A 
ATOM     12  C   UNL     1      94.793 138.270  59.452  0.00  0.00    +0.098 A 
ATOM     13  C   UNL     1      93.518 138.601  59.672  0.00  0.00    +0.088 A 
ATOM     14  C   UNL     1      93.133 139.035  61.021  0.00  0.00    +0.254 A 
ATOM     15  H   UNL     1      93.884 139.520  62.821  0.00  0.00    +0.173 HD
ENDBRANCH   6   9
BRANCH   4  16
ATOM     16  O   UNL     1      99.305 135.977  60.067  0.00  0.00    -0.386 OA
ATOM     17  H   UNL     1     100.156 135.647  59.720  0.00  0.00    +0.210 HD
ENDBRANCH   4  16
BRANCH   5  18
ATOM     18  O   UNL     1      96.845 135.212  60.362  0.00  0.00    -0.385 OA
ATOM     19  H   UNL     1      97.594 135.255  61.002  0.00  0.00    +0.210 HD
ENDBRANCH   5  18
ENDBRANCH   1   3
BRANCH   1  21
ATOM     20  O   UNL     1      96.379 136.340  55.918  0.00  0.00    -0.274 OA
ATOM     21  N   UNL     1      98.525 137.084  56.064  0.00  0.00    -0.299 N 
ATOM     22  C   UNL     1      97.572 136.165  55.699  0.00  0.00    +0.231 C 
ATOM     23  H   UNL     1      99.477 136.730  55.942  0.00  0.00    +0.150 HD
BRANCH  22  24
ATOM     24  CA  UNL     1      98.095 134.889  54.990  0.00  0.00    +0.143 C 
BRANCH  24  25
ATOM     25  N   UNL     1      97.368 134.746  53.696  0.00  0.00    -0.320 NA
ATOM     26  H1  UNL     1      98.003 134.966  52.927  0.00  0.00    +0.119 HD
ATOM     27  H2  UNL     1      97.136 133.760  53.567  0.00  0.00    +0.119 HD
ENDBRANCH  24  25
BRANCH  24  28
ATOM     28  C   UNL     1      99.632 134.919  54.785  0.00  0.00    +0.046 C 
ATOM     29  C   UNL     1     100.035 134.489  53.358  0.00  0.00    +0.012 C 
BRANCH  28  30
ATOM     30  C   UNL     1     100.439 134.141  55.872  0.00  0.00    +0.168 C 
BRANCH  30  32
ATOM     31  N   UNL     1     101.431 136.287  56.573  0.00  0.00    -0.254 NA
ATOM     32  C   UNL     1     101.300 134.959  56.829  0.00  0.00    +0.070 A 
ATOM     33  C   UNL     1     101.804 134.384  57.999  0.00  0.00    +0.029 A 
ATOM     34  C   UNL     1     102.503 135.172  58.908  0.00  0.00    +0.049 A 
ATOM     35  C   UNL     1     102.103 137.034  57.484  0.00  0.00    +0.156 A 
ATOM     36  C   UNL     1     102.644 136.522  58.653  0.00  0.00    +0.135 A 
BRANCH  36  37
ATOM     37  O   UNL     1     103.293 137.288  59.573  0.00  0.00    -0.505 OA
ATOM     38  H   UNL     1     102.803 137.258  60.412  0.00  0.00    +0.292 HD
ENDBRANCH  36  37
ENDBRANCH  30  32
BRANCH  30  39
ATOM     39  O   UNL     1      99.507 133.394  56.677  0.00  0.00    -0.385 OA
ATOM     40  H   UNL     1      99.704 133.646  57.601  0.00  0.00    +0.210 HD
ENDBRANCH  30  39
ENDBRANCH  28  30
ENDBRANCH  24  28
ENDBRANCH  22  24
ENDBRANCH   1  21
BRANCH   1  42
ATOM     41  OXT UNL     1      99.801 139.413  55.595  0.00  0.00    -0.249 OA
ATOM     42  C   UNL     1      99.159 139.354  56.638  0.00  0.00    +0.328 C 
BRANCH  42  43
ATOM     43  O   UNL     1      99.115 140.383  57.519  0.00  0.00    -0.479 OA
ATOM     44  H   UNL     1      99.102 140.089  58.461  0.00  0.00    +0.295 HD
ENDBRANCH  42  43
ENDBRANCH   1  42
TORSDOF 14
ENDMDL
MODEL 8
REMARK VINA RESULT:    -5.196      2.377      4.342
REMARK INTER + INTRA:         -11.216
REMARK INTER:                  -8.582
REMARK INTRA:                  -2.634
REMARK UNBOUND:                -2.679
REMARK  Name = 456557
REMARK  15 active torsions:
REMARK  status: ('A' for Active; 'I' for Inactive)
REMARK    1  A    between atoms: O_2  and  C_17
REMARK    2  A    between atoms: O_3  and  C_18
REMARK    3  A    between atoms: O_4  and  C_22
REMARK    4  A    between atoms: O_7  and  C_27
REMARK    5  A    between atoms: O_10  and  C_35
REMARK    6  A    between atoms: N_11  and  C_19
REMARK    7  A    between atoms: N_12  and  CA_20
REMARK    8  A    between atoms: N_13  and  CA_21
REMARK    9  A    between atoms: C_16  and  CA_20
REMARK   10  A    between atoms: CA_20  and  C_22
REMARK   11  A    between atoms: CA_21  and  C_23
REMARK   12  A    between atoms: CA_21  and  C_24
REMARK   13  A    between atoms: C_23  and  C_27
REMARK   14  A    between atoms: C_23  and  C_28
REMARK   15  A    between atoms: C_27  and  C_30
REMARK                            x       y       z     vdW  Elec       q    Type
REMARK                         _______ _______ _______ _____ _____    ______ ____
ROOT
ATOM      1  CA  UNL     1      95.052 137.727  58.533  0.00  0.00    +0.213 C 
ENDROOT
BRANCH   1   3
ATOM      2  O   UNL     1      96.416 135.940  57.513  0.00  0.00    -0.345 OA
ATOM      3  C   UNL     1      95.682 136.321  58.707  0.00  0.00    +0.183 C 
ATOM      4  C   UNL     1      96.699 136.211  59.853  0.00  0.00    +0.178 C 
ATOM      5  C   UNL     1      98.031 136.512  59.176  0.00  0.00    +0.195 C 
ATOM      6  C   UNL     1      97.809 135.789  57.843  0.00  0.00    +0.255 C 
BRANCH   6   9
ATOM      7  O   UNL     1     100.398 134.906  57.247  0.00  0.00    -0.246 OA
ATOM      8  O   UNL     1     101.080 138.104  54.225  0.00  0.00    -0.268 OA
ATOM      9  N   UNL     1      98.587 136.234  56.690  0.00  0.00    -0.271 N 
ATOM     10  N   UNL     1     100.565 136.254  55.445  0.00  0.00    -0.275 N 
ATOM     11  C   UNL     1      99.861 135.721  56.493  0.00  0.00    +0.331 A 
ATOM     12  C   UNL     1      98.119 137.300  55.947  0.00  0.00    +0.098 A 
ATOM     13  C   UNL     1      98.887 137.924  55.050  0.00  0.00    +0.088 A 
ATOM     14  C   UNL     1     100.261 137.443  54.853  0.00  0.00    +0.254 A 
ATOM     15  H   UNL     1     101.525 135.963  55.351  0.00  0.00    +0.173 HD
ENDBRANCH   6   9
BRANCH   4  16
ATOM     16  O   UNL     1      96.816 134.848  60.333  0.00  0.00    -0.386 OA
ATOM     17  H   UNL     1      96.429 134.801  61.228  0.00  0.00    +0.210 HD
ENDBRANCH   4  16
BRANCH   5  18
ATOM     18  O   UNL     1      99.119 135.971  59.933  0.00  0.00    -0.385 OA
ATOM     19  H   UNL     1      98.740 135.784  60.823  0.00  0.00    +0.210 HD
ENDBRANCH   5  18
ENDBRANCH   1   3
BRANCH   1  21
ATOM     20  O   UNL     1      95.583 140.504  59.113  0.00  0.00    -0.274 OA
ATOM     21  N   UNL     1      94.732 138.492  59.752  0.00  0.00    -0.299 N 
ATOM     22  C   UNL     1      95.173 139.768  60.003  0.00  0.00    +0.231 C 
ATOM     23  H   UNL     1      94.559 137.961  60.609  0.00  0.00    +0.150 HD
BRANCH  22  24
ATOM     24  CA  UNL     1      95.123 140.224  61.484  0.00  0.00    +0.143 C 
BRANCH  24  25
ATOM     25  N   UNL     1      94.079 139.419  62.183  0.00  0.00    -0.320 NA
ATOM     26  H1  UNL     1      93.207 139.949  62.205  0.00  0.00    +0.119 HD
ATOM     27  H2  UNL     1      93.871 138.599  61.610  0.00  0.00    +0.119 HD
ENDBRANCH  24  25
BRANCH  24  28
ATOM     28  C   UNL     1      96.503 140.105  62.182  0.00  0.00    +0.046 C 
ATOM     29  C   UNL     1      97.465 141.238  61.761  0.00  0.00    +0.012 C 
BRANCH  28  30
ATOM     30  C   UNL     1      97.171 138.701  62.048  0.00  0.00    +0.168 C 
BRANCH  30  32
ATOM     31  N   UNL     1      99.608 138.346  61.924  0.00  0.00    -0.254 NA
ATOM     32  C   UNL     1      98.521 138.496  62.726  0.00  0.00    +0.070 A 
ATOM     33  C   UNL     1      98.643 138.609  64.113  0.00  0.00    +0.029 A 
ATOM     34  C   UNL     1      99.900 138.518  64.704  0.00  0.00    +0.049 A 
ATOM     35  C   UNL     1     100.822 138.276  62.526  0.00  0.00    +0.156 A 
ATOM     36  C   UNL     1     101.010 138.362  63.896  0.00  0.00    +0.135 A 
BRANCH  36  37
ATOM     37  O   UNL     1     102.236 138.317  64.486  0.00  0.00    -0.505 OA
ATOM     38  H   UNL     1     102.459 137.393  64.684  0.00  0.00    +0.292 HD
ENDBRANCH  36  37
ENDBRANCH  30  32
BRANCH  30  39
ATOM     39  O   UNL     1      96.271 137.718  62.595  0.00  0.00    -0.385 OA
ATOM     40  H   UNL     1      96.264 137.884  63.558  0.00  0.00    +0.210 HD
ENDBRANCH  30  39
ENDBRANCH  28  30
ENDBRANCH  24  28
ENDBRANCH  22  24
ENDBRANCH   1  21
BRANCH   1  42
ATOM     41  OXT UNL     1      93.143 138.485  57.201  0.00  0.00    -0.249 OA
ATOM     42  C   UNL     1      93.744 137.563  57.741  0.00  0.00    +0.328 C 
BRANCH  42  43
ATOM     43  O   UNL     1      93.311 136.280  57.673  0.00  0.00    -0.479 OA
ATOM     44  H   UNL     1      93.079 135.995  56.758  0.00  0.00    +0.295 HD
ENDBRANCH  42  43
ENDBRANCH   1  42
TORSDOF 14
ENDMDL
MODEL 9
REMARK VINA RESULT:    -5.135      2.373      4.321
REMARK INTER + INTRA:         -11.117
REMARK INTER:                  -8.481
REMARK INTRA:                  -2.636
REMARK UNBOUND:                -2.679
REMARK  Name = 456557
REMARK  15 active torsions:
REMARK  status: ('A' for Active; 'I' for Inactive)
REMARK    1  A    between atoms: O_2  and  C_17
REMARK    2  A    between atoms: O_3  and  C_18
REMARK    3  A    between atoms: O_4  and  C_22
REMARK    4  A    between atoms: O_7  and  C_27
REMARK    5  A    between atoms: O_10  and  C_35
REMARK    6  A    between atoms: N_11  and  C_19
REMARK    7  A    between atoms: N_12  and  CA_20
REMARK    8  A    between atoms: N_13  and  CA_21
REMARK    9  A    between atoms: C_16  and  CA_20
REMARK   10  A    between atoms: CA_20  and  C_22
REMARK   11  A    between atoms: CA_21  and  C_23
REMARK   12  A    between atoms: CA_21  and  C_24
REMARK   13  A    between atoms: C_23  and  C_27
REMARK   14  A    between atoms: C_23  and  C_28
REMARK   15  A    between atoms: C_27  and  C_30
REMARK                            x       y       z     vdW  Elec       q    Type
REMARK                         _______ _______ _______ _____ _____    ______ ____
ROOT
ATOM      1  CA  UNL     1      96.575 137.291  58.709  0.00  0.00    +0.213 C 
ENDROOT
BRANCH   1   3
ATOM      2  O   UNL     1      97.851 135.179  58.674  0.00  0.00    -0.345 OA
ATOM      3  C   UNL     1      97.509 136.331  59.490  0.00  0.00    +0.183 C 
ATOM      4  C   UNL     1      98.855 136.941  59.905  0.00  0.00    +0.178 C 
ATOM      5  C   UNL     1      99.779 136.586  58.744  0.00  0.00    +0.195 C 
ATOM      6  C   UNL     1      99.272 135.172  58.438  0.00  0.00    +0.255 C 
BRANCH   6   9
ATOM      7  O   UNL     1     101.660 133.992  57.578  0.00  0.00    -0.246 OA
ATOM      8  O   UNL     1     100.496 134.136  53.283  0.00  0.00    -0.268 OA
ATOM      9  N   UNL     1      99.495 134.647  57.094  0.00  0.00    -0.271 N 
ATOM     10  N   UNL     1     100.888 133.691  55.479  0.00  0.00    -0.275 N 
ATOM     11  C   UNL     1     100.721 134.077  56.784  0.00  0.00    +0.331 A 
ATOM     12  C   UNL     1      98.559 134.916  56.114  0.00  0.00    +0.098 A 
ATOM     13  C   UNL     1      98.810 134.697  54.821  0.00  0.00    +0.088 A 
ATOM     14  C   UNL     1     100.119 134.144  54.449  0.00  0.00    +0.254 A 
ATOM     15  H   UNL     1     101.806 133.368  55.217  0.00  0.00    +0.173 HD
ENDBRANCH   6   9
BRANCH   4  16
ATOM     16  O   UNL     1      99.416 136.264  61.058  0.00  0.00    -0.386 OA
ATOM     17  H   UNL     1      99.623 136.932  61.738  0.00  0.00    +0.210 HD
ENDBRANCH   4  16
BRANCH   5  18
ATOM     18  O   UNL     1     101.149 136.612  59.160  0.00  0.00    -0.385 OA
ATOM     19  H   UNL     1     101.418 137.558  59.087  0.00  0.00    +0.210 HD
ENDBRANCH   5  18
ENDBRANCH   1   3
BRANCH   1  21
ATOM     20  O   UNL     1      96.801 140.131  59.172  0.00  0.00    -0.274 OA
ATOM     21  N   UNL     1      95.688 138.172  59.491  0.00  0.00    -0.299 N 
ATOM     22  C   UNL     1      95.968 139.482  59.794  0.00  0.00    +0.231 C 
ATOM     23  H   UNL     1      95.080 137.730  60.185  0.00  0.00    +0.150 HD
BRANCH  22  24
ATOM     24  CA  UNL     1      95.166 140.093  60.971  0.00  0.00    +0.143 C 
BRANCH  24  25
ATOM     25  N   UNL     1      93.954 139.252  61.194  0.00  0.00    -0.320 NA
ATOM     26  H1  UNL     1      94.043 138.765  62.087  0.00  0.00    +0.119 HD
ATOM     27  H2  UNL     1      93.152 139.872  61.314  0.00  0.00    +0.119 HD
ENDBRANCH  24  25
BRANCH  24  28
ATOM     28  C   UNL     1      96.020 140.222  62.259  0.00  0.00    +0.046 C 
ATOM     29  C   UNL     1      96.696 141.607  62.369  0.00  0.00    +0.012 C 
BRANCH  28  30
ATOM     30  C   UNL     1      97.043 139.062  62.469  0.00  0.00    +0.168 C 
BRANCH  30  32
ATOM     31  N   UNL     1      97.312 139.158  64.919  0.00  0.00    -0.254 NA
ATOM     32  C   UNL     1      97.930 139.121  63.708  0.00  0.00    +0.070 A 
ATOM     33  C   UNL     1      99.316 138.991  63.597  0.00  0.00    +0.029 A 
ATOM     34  C   UNL     1     100.100 138.948  64.747  0.00  0.00    +0.049 A 
ATOM     35  C   UNL     1      98.099 139.099  66.022  0.00  0.00    +0.156 A 
ATOM     36  C   UNL     1      99.479 138.989  65.981  0.00  0.00    +0.135 A 
BRANCH  36  37
ATOM     37  O   UNL     1     100.255 138.903  67.095  0.00  0.00    -0.505 OA
ATOM     38  H   UNL     1     100.810 139.698  67.158  0.00  0.00    +0.292 HD
ENDBRANCH  36  37
ENDBRANCH  30  32
BRANCH  30  39
ATOM     39  O   UNL     1      96.313 137.822  62.532  0.00  0.00    -0.385 OA
ATOM     40  H   UNL     1      96.778 137.218  61.920  0.00  0.00    +0.210 HD
ENDBRANCH  30  39
ENDBRANCH  28  30
ENDBRANCH  24  28
ENDBRANCH  22  24
ENDBRANCH   1  21
BRANCH   1  42
ATOM     41  OXT UNL     1      95.585 136.597  56.581  0.00  0.00    -0.249 OA
ATOM     42  C   UNL     1      95.681 136.439  57.793  0.00  0.00    +0.328 C 
BRANCH  42  43
ATOM     43  O   UNL     1      95.006 135.465  58.451  0.00  0.00    -0.479 OA
ATOM     44  H   UNL     1      94.616 135.770  59.304  0.00  0.00    +0.295 HD
ENDBRANCH  42  43
ENDBRANCH   1  42
TORSDOF 14
ENDMDL
