MODEL 1
REMARK VINA RESULT:     0.000      0.000      0.000
REMARK INTER + INTRA:          -2.944
REMARK INTER:                   0.000
REMARK INTRA:                  -2.944
REMARK UNBOUND:                -2.944
REMARK  Name = 
REMARK  22 active torsions:
REMARK  status: ('A' for Active; 'I' for Inactive)
REMARK    1  A    between atoms: C_1  and  C_2
REMARK    2  A    between atoms: C_2  and  C_3
REMARK    3  A    between atoms: C_2  and  C_6
REMARK    4  A    between atoms: C_3  and  C_4
REMARK    5  A    between atoms: C_3  and  C_5
REMARK    6  A    between atoms: C_6  and  C_50
REMARK    7  A    between atoms: C_9  and  C_49
REMARK    8  A    between atoms: C_14  and  C_48
REMARK    9  A    between atoms: C_17  and  O_47
REMARK   10  A    between atoms: C_22  and  C_27
REMARK   11  A    between atoms: C_23  and  C_24
REMARK   12  A    between atoms: C_24  and  O_26
REMARK   13  A    between atoms: C_29  and  O_43
REMARK   14  A    between atoms: C_30  and  O_31
REMARK   15  A    between atoms: O_31  and  C_32
REMARK   16  A    between atoms: C_33  and  O_42
REMARK   17  A    between atoms: C_34  and  O_41
REMARK   18  A    between atoms: C_35  and  O_40
REMARK   19  A    between atoms: C_36  and  C_38
REMARK   20  A    between atoms: C_38  and  O_39
REMARK   21  A    between atoms: O_43  and  C_44
REMARK   22  A    between atoms: C_44  and  C_46
REMARK                            x       y       z     vdW  Elec       q    Type
REMARK                         _______ _______ _______ _____ _____    ______ ____
ROOT
ATOM      1  C   UNL     1      89.078 133.112  64.103  0.00  0.00    -0.016 C 
ATOM      2  C   UNL     1      90.236 134.138  63.841  0.00  0.00    +0.008 C 
ATOM      3  C   UNL     1      91.110 134.628  64.967  0.00  0.00    +0.008 C 
ATOM      4  C   UNL     1      91.347 133.630  66.111  0.00  0.00    -0.019 C 
ATOM      5  C   UNL     1      92.862 133.517  66.439  0.00  0.00    +0.022 C 
ATOM      6  C   UNL     1      93.687 134.808  66.441  0.00  0.00    +0.009 C 
ATOM      7  C   UNL     1      95.114 134.393  66.690  0.00  0.00    +0.006 C 
ATOM      8  C   UNL     1      95.285 133.754  68.069  0.00  0.00    +0.015 C 
ATOM      9  C   UNL     1      95.998 134.628  69.105  0.00  0.00    +0.025 C 
ATOM     10  C   UNL     1      95.039 135.668  69.702  0.00  0.00    +0.172 C 
ATOM     11  O   UNL     1      94.053 135.010  70.476  0.00  0.00    -0.350 OA
ATOM     12  C   UNL     1      93.223 134.206  69.666  0.00  0.00    +0.257 C 
ATOM     13  C   UNL     1      93.996 133.175  68.747  0.00  0.00    +0.050 C 
ATOM     14  C   UNL     1      93.037 132.669  67.690  0.00  0.00    -0.059 C 
ATOM     15  C   UNL     1      92.213 131.628  67.921  0.00  0.00    -0.026 C 
ATOM     16  C   UNL     1      91.055 131.268  67.058  0.00  0.00    +0.035 C 
ATOM     17  C   UNL     1      90.880 132.130  65.765  0.00  0.00    -0.009 C 
ATOM     18  C   UNL     1      89.379 132.093  65.282  0.00  0.00    +0.110 C 
ATOM     19  C   UNL     1      91.766 131.442  64.675  0.00  0.00    +0.013 C 
ATOM     20  C   UNL     1      94.515 132.014  69.609  0.00  0.00    +0.063 C 
ATOM     21  C   UNL     1      95.569 132.451  70.604  0.00  0.00    +0.207 C 
ATOM     22  C   UNL     1      96.504 133.631  70.178  0.00  0.00    +0.170 C 
ATOM     23  C   UNL     1      97.203 135.394  68.516  0.00  0.00    +0.016 C 
ATOM     24  C   UNL     1      90.638 134.260  67.359  0.00  0.00    +0.012 C 
ATOM     25  C   UNL     1      88.997 132.412  62.698  0.00  0.00    +0.012 C 
ENDROOT
BRANCH   1  27
ATOM     26  C   UNL     1      87.661 135.352  63.761  0.00  0.00    +0.008 C 
ATOM     27  C   UNL     1      87.725 133.949  64.397  0.00  0.00    -0.005 C 
BRANCH  27  28
ATOM     28  C   UNL     1      87.243 134.061  65.885  0.00  0.00    -0.014 C 
ATOM     29  C   UNL     1      87.192 135.468  66.508  0.00  0.00    +0.007 C 
ATOM     30  C   UNL     1      85.833 133.466  66.037  0.00  0.00    +0.007 C 
ENDBRANCH  27  28
ENDBRANCH   1  27
BRANCH  18  31
ATOM     31  C   UNL     1      88.855 130.605  65.189  0.00  0.00    +0.309 C 
ATOM     32  O   UNL     1      89.372 129.731  64.493  0.00  0.00    -0.251 OA
BRANCH  31  33
ATOM     33  O   UNL     1      87.842 130.233  65.984  0.00  0.00    -0.480 OA
ATOM     34  H   UNL     1      87.105 130.844  66.067  0.00  0.00    +0.295 HD
ENDBRANCH  31  33
ENDBRANCH  18  31
BRANCH  12  35
ATOM     35  O   UNL     1      92.366 133.544  70.585  0.00  0.00    -0.366 OA
ATOM     36  H   UNL     1      91.544 134.069  70.536  0.00  0.00    +0.213 HD
ENDBRANCH  12  35
BRANCH  22  37
ATOM     37  O   UNL     1      96.881 134.429  71.298  0.00  0.00    -0.341 OA
BRANCH  37  38
ATOM     38  C   UNL     1      96.585 133.880  72.566  0.00  0.00    +0.282 C 
ATOM     39  C   UNL     1      97.885 133.549  73.309  0.00  0.00    +0.201 C 
ATOM     40  C   UNL     1      97.709 133.767  74.815  0.00  0.00    +0.179 C 
ATOM     41  C   UNL     1      96.251 133.505  75.267  0.00  0.00    +0.177 C 
ATOM     42  C   UNL     1      95.194 134.205  74.382  0.00  0.00    +0.178 C 
ATOM     43  O   UNL     1      95.812 134.846  73.256  0.00  0.00    -0.341 OA
BRANCH  41  44
ATOM     44  O   UNL     1      95.978 132.089  75.170  0.00  0.00    -0.386 OA
ATOM     45  H   UNL     1      95.163 131.964  74.649  0.00  0.00    +0.210 HD
ENDBRANCH  41  44
BRANCH  40  46
ATOM     46  O   UNL     1      98.139 135.076  75.189  0.00  0.00    -0.386 OA
ATOM     47  H   UNL     1      98.884 135.306  74.603  0.00  0.00    +0.210 HD
ENDBRANCH  40  46
BRANCH  39  48
ATOM     48  O   UNL     1      98.312 132.175  73.114  0.00  0.00    -0.384 OA
ATOM     49  H   UNL     1      98.596 132.061  72.198  0.00  0.00    +0.210 HD
ENDBRANCH  39  48
BRANCH  42  50
ATOM     50  C   UNL     1      94.363 135.266  75.097  0.00  0.00    +0.190 C 
BRANCH  50  51
ATOM     51  O   UNL     1      95.242 136.244  75.669  0.00  0.00    -0.392 OA
ATOM     52  H   UNL     1      95.023 136.266  76.623  0.00  0.00    +0.210 HD
ENDBRANCH  50  51
ENDBRANCH  42  50
ENDBRANCH  37  38
ENDBRANCH  22  37
BRANCH  21  53
ATOM     53  O   UNL     1      96.454 131.293  70.777  0.00  0.00    -0.459 OA
BRANCH  53  54
ATOM     54  C   UNL     1      96.060 130.315  71.634  0.00  0.00    +0.304 C 
ATOM     55  O   UNL     1      95.703 130.490  72.791  0.00  0.00    -0.251 OA
ATOM     56  C   UNL     1      96.061 128.982  70.941  0.00  0.00    +0.136 C 
ENDBRANCH  53  54
ENDBRANCH  21  53
TORSDOF 14
ENDMDL
MODEL 2
REMARK VINA RESULT:     0.000      8.563     15.419
REMARK INTER + INTRA:          -2.943
REMARK INTER:                   0.000
REMARK INTRA:                  -2.943
REMARK UNBOUND:                -2.944
REMARK  Name = 
REMARK  22 active torsions:
REMARK  status: ('A' for Active; 'I' for Inactive)
REMARK    1  A    between atoms: C_1  and  C_2
REMARK    2  A    between atoms: C_2  and  C_3
REMARK    3  A    between atoms: C_2  and  C_6
REMARK    4  A    between atoms: C_3  and  C_4
REMARK    5  A    between atoms: C_3  and  C_5
REMARK    6  A    between atoms: C_6  and  C_50
REMARK    7  A    between atoms: C_9  and  C_49
REMARK    8  A    between atoms: C_14  and  C_48
REMARK    9  A    between atoms: C_17  and  O_47
REMARK   10  A    between atoms: C_22  and  C_27
REMARK   11  A    between atoms: C_23  and  C_24
REMARK   12  A    between atoms: C_24  and  O_26
REMARK   13  A    between atoms: C_29  and  O_43
REMARK   14  A    between atoms: C_30  and  O_31
REMARK   15  A    between atoms: O_31  and  C_32
REMARK   16  A    between atoms: C_33  and  O_42
REMARK   17  A    between atoms: C_34  and  O_41
REMARK   18  A    between atoms: C_35  and  O_40
REMARK   19  A    between atoms: C_36  and  C_38
REMARK   20  A    between atoms: C_38  and  O_39
REMARK   21  A    between atoms: O_43  and  C_44
REMARK   22  A    between atoms: C_44  and  C_46
REMARK                            x       y       z     vdW  Elec       q    Type
REMARK                         _______ _______ _______ _____ _____    ______ ____
ROOT
ATOM      1  C   UNL     1      86.395 133.047  67.392  0.00  0.00    -0.016 C 
ATOM      2  C   UNL     1      87.527 132.729  66.354  0.00  0.00    +0.008 C 
ATOM      3  C   UNL     1      87.194 132.325  64.941  0.00  0.00    +0.008 C 
ATOM      4  C   UNL     1      85.905 132.928  64.361  0.00  0.00    -0.019 C 
ATOM      5  C   UNL     1      86.169 133.552  62.962  0.00  0.00    +0.022 C 
ATOM      6  C   UNL     1      87.088 132.787  62.004  0.00  0.00    +0.009 C 
ATOM      7  C   UNL     1      87.239 133.659  60.784  0.00  0.00    +0.006 C 
ATOM      8  C   UNL     1      85.906 133.854  60.059  0.00  0.00    +0.015 C 
ATOM      9  C   UNL     1      85.764 133.083  58.744  0.00  0.00    +0.025 C 
ATOM     10  C   UNL     1      85.412 131.611  59.004  0.00  0.00    +0.172 C 
ATOM     11  O   UNL     1      84.111 131.528  59.554  0.00  0.00    -0.350 OA
ATOM     12  C   UNL     1      84.061 132.122  60.834  0.00  0.00    +0.257 C 
ATOM     13  C   UNL     1      84.603 133.607  60.894  0.00  0.00    +0.050 C 
ATOM     14  C   UNL     1      84.841 133.967  62.346  0.00  0.00    -0.059 C 
ATOM     15  C   UNL     1      83.854 134.447  63.128  0.00  0.00    -0.026 C 
ATOM     16  C   UNL     1      83.930 134.540  64.611  0.00  0.00    +0.035 C 
ATOM     17  C   UNL     1      85.298 134.126  65.246  0.00  0.00    -0.009 C 
ATOM     18  C   UNL     1      85.092 133.684  66.746  0.00  0.00    +0.110 C 
ATOM     19  C   UNL     1      86.180 135.417  65.230  0.00  0.00    +0.013 C 
ATOM     20  C   UNL     1      83.570 134.553  60.263  0.00  0.00    +0.063 C 
ATOM     21  C   UNL     1      83.384 134.309  58.780  0.00  0.00    +0.207 C 
ATOM     22  C   UNL     1      84.634 133.817  57.978  0.00  0.00    +0.170 C 
ATOM     23  C   UNL     1      87.053 133.106  57.893  0.00  0.00    +0.016 C 
ATOM     24  C   UNL     1      84.937 131.712  64.161  0.00  0.00    +0.012 C 
ATOM     25  C   UNL     1      87.154 134.044  68.342  0.00  0.00    +0.012 C 
ENDROOT
BRANCH   1  27
ATOM     26  C   UNL     1      87.182 130.650  68.273  0.00  0.00    +0.008 C 
ATOM     27  C   UNL     1      86.038 131.679  68.179  0.00  0.00    -0.005 C 
BRANCH  27  28
ATOM     28  C   UNL     1      84.726 130.922  67.772  0.00  0.00    -0.014 C 
ATOM     29  C   UNL     1      84.880 129.502  67.196  0.00  0.00    +0.007 C 
ATOM     30  C   UNL     1      83.780 130.804  68.978  0.00  0.00    +0.007 C 
ENDBRANCH  27  28
ENDBRANCH   1  27
BRANCH  18  31
ATOM     31  C   UNL     1      84.268 134.770  67.545  0.00  0.00    +0.309 C 
ATOM     32  O   UNL     1      84.607 135.947  67.664  0.00  0.00    -0.251 OA
BRANCH  31  33
ATOM     33  O   UNL     1      83.076 134.423  68.049  0.00  0.00    -0.480 OA
ATOM     34  H   UNL     1      83.051 134.162  68.973  0.00  0.00    +0.295 HD
ENDBRANCH  31  33
ENDBRANCH  18  31
BRANCH  12  35
ATOM     35  O   UNL     1      82.692 132.051  61.204  0.00  0.00    -0.366 OA
ATOM     36  H   UNL     1      82.265 132.681  60.592  0.00  0.00    +0.213 HD
ENDBRANCH  12  35
BRANCH  22  37
ATOM     37  O   UNL     1      84.261 132.946  56.913  0.00  0.00    -0.341 OA
BRANCH  37  38
ATOM     38  C   UNL     1      82.881 132.906  56.611  0.00  0.00    +0.282 C 
ATOM     39  C   UNL     1      82.633 133.503  55.221  0.00  0.00    +0.201 C 
ATOM     40  C   UNL     1      81.469 132.784  54.533  0.00  0.00    +0.179 C 
ATOM     41  C   UNL     1      80.428 132.264  55.555  0.00  0.00    +0.177 C 
ATOM     42  C   UNL     1      81.057 131.495  56.740  0.00  0.00    +0.178 C 
ATOM     43  O   UNL     1      82.490 131.546  56.681  0.00  0.00    -0.341 OA
BRANCH  41  44
ATOM     44  O   UNL     1      79.736 133.393  56.134  0.00  0.00    -0.386 OA
ATOM     45  H   UNL     1      80.252 134.202  55.952  0.00  0.00    +0.210 HD
ENDBRANCH  41  44
BRANCH  40  46
ATOM     46  O   UNL     1      81.950 131.727  53.701  0.00  0.00    -0.386 OA
ATOM     47  H   UNL     1      81.169 131.328  53.273  0.00  0.00    +0.210 HD
ENDBRANCH  40  46
BRANCH  39  48
ATOM     48  O   UNL     1      82.306 134.918  55.266  0.00  0.00    -0.384 OA
ATOM     49  H   UNL     1      81.958 135.187  54.407  0.00  0.00    +0.210 HD
ENDBRANCH  39  48
BRANCH  42  50
ATOM     50  C   UNL     1      80.667 130.022  56.825  0.00  0.00    +0.190 C 
BRANCH  50  51
ATOM     51  O   UNL     1      81.013 129.374  55.593  0.00  0.00    -0.392 OA
ATOM     52  H   UNL     1      80.910 128.415  55.765  0.00  0.00    +0.210 HD
ENDBRANCH  50  51
ENDBRANCH  42  50
ENDBRANCH  37  38
ENDBRANCH  22  37
BRANCH  21  53
ATOM     53  O   UNL     1      83.040 135.615  58.205  0.00  0.00    -0.459 OA
BRANCH  53  54
ATOM     54  C   UNL     1      81.748 136.027  58.292  0.00  0.00    +0.304 C 
ATOM     55  O   UNL     1      80.773 135.373  57.950  0.00  0.00    -0.251 OA
ATOM     56  C   UNL     1      81.674 137.384  58.932  0.00  0.00    +0.136 C 
ENDBRANCH  53  54
ENDBRANCH  21  53
TORSDOF 14
ENDMDL
MODEL 3
REMARK VINA RESULT:     0.001      8.929     11.951
REMARK INTER + INTRA:          -2.942
REMARK INTER:                   0.000
REMARK INTRA:                  -2.942
REMARK UNBOUND:                -2.944
REMARK  Name = 
REMARK  22 active torsions:
REMARK  status: ('A' for Active; 'I' for Inactive)
REMARK    1  A    between atoms: C_1  and  C_2
REMARK    2  A    between atoms: C_2  and  C_3
REMARK    3  A    between atoms: C_2  and  C_6
REMARK    4  A    between atoms: C_3  and  C_4
REMARK    5  A    between atoms: C_3  and  C_5
REMARK    6  A    between atoms: C_6  and  C_50
REMARK    7  A    between atoms: C_9  and  C_49
REMARK    8  A    between atoms: C_14  and  C_48
REMARK    9  A    between atoms: C_17  and  O_47
REMARK   10  A    between atoms: C_22  and  C_27
REMARK   11  A    between atoms: C_23  and  C_24
REMARK   12  A    between atoms: C_24  and  O_26
REMARK   13  A    between atoms: C_29  and  O_43
REMARK   14  A    between atoms: C_30  and  O_31
REMARK   15  A    between atoms: O_31  and  C_32
REMARK   16  A    between atoms: C_33  and  O_42
REMARK   17  A    between atoms: C_34  and  O_41
REMARK   18  A    between atoms: C_35  and  O_40
REMARK   19  A    between atoms: C_36  and  C_38
REMARK   20  A    between atoms: C_38  and  O_39
REMARK   21  A    between atoms: O_43  and  C_44
REMARK   22  A    between atoms: C_44  and  C_46
REMARK                            x       y       z     vdW  Elec       q    Type
REMARK                         _______ _______ _______ _____ _____    ______ ____
ROOT
ATOM      1  C   UNL     1      96.938 145.559  62.346  0.00  0.00    -0.016 C 
ATOM      2  C   UNL     1      95.482 145.269  62.856  0.00  0.00    +0.008 C 
ATOM      3  C   UNL     1      95.235 144.325  64.004  0.00  0.00    +0.008 C 
ATOM      4  C   UNL     1      96.341 144.265  65.070  0.00  0.00    -0.019 C 
ATOM      5  C   UNL     1      95.743 144.421  66.495  0.00  0.00    +0.022 C 
ATOM      6  C   UNL     1      94.427 143.697  66.797  0.00  0.00    +0.009 C 
ATOM      7  C   UNL     1      94.040 144.100  68.197  0.00  0.00    +0.006 C 
ATOM      8  C   UNL     1      95.060 143.615  69.229  0.00  0.00    +0.015 C 
ATOM      9  C   UNL     1      94.601 142.437  70.092  0.00  0.00    +0.025 C 
ATOM     10  C   UNL     1      94.736 141.110  69.330  0.00  0.00    +0.172 C 
ATOM     11  O   UNL     1      96.106 140.826  69.119  0.00  0.00    -0.350 OA
ATOM     12  C   UNL     1      96.697 141.775  68.258  0.00  0.00    +0.257 C 
ATOM     13  C   UNL     1      96.498 143.281  68.700  0.00  0.00    +0.050 C 
ATOM     14  C   UNL     1      96.837 144.170  67.522  0.00  0.00    -0.059 C 
ATOM     15  C   UNL     1      98.102 144.561  67.271  0.00  0.00    -0.026 C 
ATOM     16  C   UNL     1      98.552 145.174  65.992  0.00  0.00    +0.035 C 
ATOM     17  C   UNL     1      97.427 145.444  64.939  0.00  0.00    -0.009 C 
ATOM     18  C   UNL     1      98.040 145.502  63.487  0.00  0.00    +0.110 C 
ATOM     19  C   UNL     1      96.852 146.857  65.287  0.00  0.00    +0.013 C 
ATOM     20  C   UNL     1      97.416 143.587  69.893  0.00  0.00    +0.063 C 
ATOM     21  C   UNL     1      97.039 142.806  71.135  0.00  0.00    +0.207 C 
ATOM     22  C   UNL     1      95.522 142.479  71.337  0.00  0.00    +0.170 C 
ATOM     23  C   UNL     1      93.130 142.563  70.544  0.00  0.00    +0.016 C 
ATOM     24  C   UNL     1      96.937 142.819  64.962  0.00  0.00    +0.012 C 
ATOM     25  C   UNL     1      96.747 147.002  61.753  0.00  0.00    +0.012 C 
ENDROOT
BRANCH   1  27
ATOM     26  C   UNL     1      96.057 143.970  60.386  0.00  0.00    +0.008 C 
ATOM     27  C   UNL     1      97.274 144.503  61.167  0.00  0.00    -0.005 C 
BRANCH  27  28
ATOM     28  C   UNL     1      98.206 143.290  61.515  0.00  0.00    -0.014 C 
ATOM     29  C   UNL     1      97.603 141.878  61.390  0.00  0.00    +0.007 C 
ATOM     30  C   UNL     1      99.461 143.308  60.627  0.00  0.00    +0.007 C 
ENDBRANCH  27  28
ENDBRANCH   1  27
BRANCH  18  31
ATOM     31  C   UNL     1      99.276 146.486  63.436  0.00  0.00    +0.309 C 
ATOM     32  O   UNL     1      99.226 147.677  63.744  0.00  0.00    -0.251 OA
BRANCH  31  33
ATOM     33  O   UNL     1     100.480 145.984  63.132  0.00  0.00    -0.480 OA
ATOM     34  H   UNL     1     101.069 145.785  63.865  0.00  0.00    +0.295 HD
ENDBRANCH  31  33
ENDBRANCH  18  31
BRANCH  12  35
ATOM     35  O   UNL     1      98.071 141.418  68.226  0.00  0.00    -0.366 OA
ATOM     36  H   UNL     1      98.248 141.142  69.146  0.00  0.00    +0.213 HD
ENDBRANCH  12  35
BRANCH  22  37
ATOM     37  O   UNL     1      95.342 141.227  71.993  0.00  0.00    -0.341 OA
BRANCH  37  38
ATOM     38  C   UNL     1      96.504 140.663  72.565  0.00  0.00    +0.282 C 
ATOM     39  C   UNL     1      96.377 140.639  74.093  0.00  0.00    +0.201 C 
ATOM     40  C   UNL     1      97.082 139.406  74.667  0.00  0.00    +0.179 C 
ATOM     41  C   UNL     1      98.289 138.976  73.797  0.00  0.00    +0.177 C 
ATOM     42  C   UNL     1      97.964 138.894  72.287  0.00  0.00    +0.178 C 
ATOM     43  O   UNL     1      96.632 139.360  72.024  0.00  0.00    -0.341 OA
BRANCH  41  44
ATOM     44  O   UNL     1      99.335 139.963  73.926  0.00  0.00    -0.386 OA
ATOM     45  H   UNL     1      98.928 140.851  73.930  0.00  0.00    +0.210 HD
ENDBRANCH  41  44
BRANCH  40  46
ATOM     46  O   UNL     1      96.157 138.330  74.838  0.00  0.00    -0.386 OA
ATOM     47  H   UNL     1      96.416 137.634  74.205  0.00  0.00    +0.210 HD
ENDBRANCH  40  46
BRANCH  39  48
ATOM     48  O   UNL     1      96.961 141.809  74.725  0.00  0.00    -0.384 OA
ATOM     49  H   UNL     1      96.271 142.281  75.209  0.00  0.00    +0.210 HD
ENDBRANCH  39  48
BRANCH  42  50
ATOM     50  C   UNL     1      98.073 137.496  71.685  0.00  0.00    +0.190 C 
BRANCH  50  51
ATOM     51  O   UNL     1      97.218 136.604  72.413  0.00  0.00    -0.392 OA
ATOM     52  H   UNL     1      96.692 137.175  73.009  0.00  0.00    +0.210 HD
ENDBRANCH  50  51
ENDBRANCH  42  50
ENDBRANCH  37  38
ENDBRANCH  22  37
BRANCH  21  53
ATOM     53  O   UNL     1      97.409 143.664  72.268  0.00  0.00    -0.459 OA
BRANCH  53  54
ATOM     54  C   UNL     1      98.707 143.661  72.669  0.00  0.00    +0.304 C 
ATOM     55  O   UNL     1      99.366 142.663  72.926  0.00  0.00    -0.251 OA
ATOM     56  C   UNL     1      99.249 145.062  72.693  0.00  0.00    +0.136 C 
ENDBRANCH  53  54
ENDBRANCH  21  53
TORSDOF 14
ENDMDL
MODEL 4
REMARK VINA RESULT:     0.002      8.225     10.967
REMARK INTER + INTRA:          -2.940
REMARK INTER:                   0.000
REMARK INTRA:                  -2.940
REMARK UNBOUND:                -2.944
REMARK  Name = 
REMARK  22 active torsions:
REMARK  status: ('A' for Active; 'I' for Inactive)
REMARK    1  A    between atoms: C_1  and  C_2
REMARK    2  A    between atoms: C_2  and  C_3
REMARK    3  A    between atoms: C_2  and  C_6
REMARK    4  A    between atoms: C_3  and  C_4
REMARK    5  A    between atoms: C_3  and  C_5
REMARK    6  A    between atoms: C_6  and  C_50
REMARK    7  A    between atoms: C_9  and  C_49
REMARK    8  A    between atoms: C_14  and  C_48
REMARK    9  A    between atoms: C_17  and  O_47
REMARK   10  A    between atoms: C_22  and  C_27
REMARK   11  A    between atoms: C_23  and  C_24
REMARK   12  A    between atoms: C_24  and  O_26
REMARK   13  A    between atoms: C_29  and  O_43
REMARK   14  A    between atoms: C_30  and  O_31
REMARK   15  A    between atoms: O_31  and  C_32
REMARK   16  A    between atoms: C_33  and  O_42
REMARK   17  A    between atoms: C_34  and  O_41
REMARK   18  A    between atoms: C_35  and  O_40
REMARK   19  A    between atoms: C_36  and  C_38
REMARK   20  A    between atoms: C_38  and  O_39
REMARK   21  A    between atoms: O_43  and  C_44
REMARK   22  A    between atoms: C_44  and  C_46
REMARK                            x       y       z     vdW  Elec       q    Type
REMARK                         _______ _______ _______ _____ _____    ______ ____
ROOT
ATOM      1  C   UNL     1      99.787 135.689  61.443  0.00  0.00    -0.016 C 
ATOM      2  C   UNL     1      99.805 137.187  60.977  0.00  0.00    +0.008 C 
ATOM      3  C   UNL     1      99.612 138.310  61.964  0.00  0.00    +0.008 C 
ATOM      4  C   UNL     1     100.131 138.045  63.386  0.00  0.00    -0.019 C 
ATOM      5  C   UNL     1     101.017 139.223  63.877  0.00  0.00    +0.022 C 
ATOM      6  C   UNL     1     100.557 140.646  63.543  0.00  0.00    +0.009 C 
ATOM      7  C   UNL     1     101.639 141.565  64.050  0.00  0.00    +0.006 C 
ATOM      8  C   UNL     1     101.779 141.490  65.571  0.00  0.00    +0.015 C 
ATOM      9  C   UNL     1     101.236 142.702  66.334  0.00  0.00    +0.025 C 
ATOM     10  C   UNL     1      99.708 142.628  66.467  0.00  0.00    +0.172 C 
ATOM     11  O   UNL     1      99.360 141.548  67.312  0.00  0.00    -0.350 OA
ATOM     12  C   UNL     1      99.711 140.311  66.729  0.00  0.00    +0.257 C 
ATOM     13  C   UNL     1     101.222 140.203  66.271  0.00  0.00    +0.050 C 
ATOM     14  C   UNL     1     101.353 139.011  65.346  0.00  0.00    -0.059 C 
ATOM     15  C   UNL     1     101.557 137.766  65.820  0.00  0.00    -0.026 C 
ATOM     16  C   UNL     1     101.400 136.526  65.012  0.00  0.00    +0.035 C 
ATOM     17  C   UNL     1     101.066 136.741  63.499  0.00  0.00    -0.009 C 
ATOM     18  C   UNL     1     100.348 135.466  62.911  0.00  0.00    +0.110 C 
ATOM     19  C   UNL     1     102.446 136.905  62.780  0.00  0.00    +0.013 C 
ATOM     20  C   UNL     1     102.118 140.032  67.507  0.00  0.00    +0.063 C 
ATOM     21  C   UNL     1     102.113 141.251  68.406  0.00  0.00    +0.207 C 
ATOM     22  C   UNL     1     101.936 142.643  67.715  0.00  0.00    +0.170 C 
ATOM     23  C   UNL     1     101.576 144.043  65.648  0.00  0.00    +0.016 C 
ATOM     24  C   UNL     1      98.851 138.007  64.289  0.00  0.00    +0.012 C 
ATOM     25  C   UNL     1     100.696 135.038  60.337  0.00  0.00    +0.012 C 
ENDROOT
BRANCH   1  27
ATOM     26  C   UNL     1      97.397 135.844  60.257  0.00  0.00    +0.008 C 
ATOM     27  C   UNL     1      98.268 135.144  61.318  0.00  0.00    -0.005 C 
BRANCH  27  28
ATOM     28  C   UNL     1      97.428 135.013  62.636  0.00  0.00    -0.014 C 
ATOM     29  C   UNL     1      96.163 135.882  62.757  0.00  0.00    +0.007 C 
ATOM     30  C   UNL     1      96.978 133.557  62.841  0.00  0.00    +0.007 C 
ENDBRANCH  27  28
ENDBRANCH   1  27
BRANCH  18  31
ATOM     31  C   UNL     1     101.161 134.155  63.252  0.00  0.00    +0.309 C 
ATOM     32  O   UNL     1     102.334 133.964  62.931  0.00  0.00    -0.251 OA
BRANCH  31  33
ATOM     33  O   UNL     1     100.579 133.224  64.021  0.00  0.00    -0.480 OA
ATOM     34  H   UNL     1     100.081 133.535  64.782  0.00  0.00    +0.295 HD
ENDBRANCH  31  33
ENDBRANCH  18  31
BRANCH  12  35
ATOM     35  O   UNL     1      99.398 139.348  67.724  0.00  0.00    -0.366 OA
ATOM     36  H   UNL     1      99.001 138.620  67.210  0.00  0.00    +0.213 HD
ENDBRANCH  12  35
BRANCH  22  37
ATOM     37  O   UNL     1     101.221 143.553  68.548  0.00  0.00    -0.341 OA
BRANCH  37  38
ATOM     38  C   UNL     1     101.051 143.146  69.891  0.00  0.00    +0.282 C 
ATOM     39  C   UNL     1     101.841 144.075  70.821  0.00  0.00    +0.201 C 
ATOM     40  C   UNL     1     101.103 144.247  72.153  0.00  0.00    +0.179 C 
ATOM     41  C   UNL     1     100.282 142.987  72.523  0.00  0.00    +0.177 C 
ATOM     42  C   UNL     1      99.411 142.454  71.362  0.00  0.00    +0.178 C 
ATOM     43  O   UNL     1      99.660 143.189  70.155  0.00  0.00    -0.341 OA
BRANCH  41  44
ATOM     44  O   UNL     1     101.193 141.918  72.862  0.00  0.00    -0.386 OA
ATOM     45  H   UNL     1     102.102 142.204  72.651  0.00  0.00    +0.210 HD
ENDBRANCH  41  44
BRANCH  40  46
ATOM     46  O   UNL     1     100.277 145.413  72.125  0.00  0.00    -0.386 OA
ATOM     47  H   UNL     1     100.389 145.857  72.986  0.00  0.00    +0.210 HD
ENDBRANCH  40  46
BRANCH  39  48
ATOM     48  O   UNL     1     103.170 143.574  71.122  0.00  0.00    -0.384 OA
ATOM     49  H   UNL     1     103.714 144.302  71.447  0.00  0.00    +0.210 HD
ENDBRANCH  39  48
BRANCH  42  50
ATOM     50  C   UNL     1      97.906 142.510  71.614  0.00  0.00    +0.190 C 
BRANCH  50  51
ATOM     51  O   UNL     1      97.532 143.860  71.919  0.00  0.00    -0.392 OA
ATOM     52  H   UNL     1      97.459 143.896  72.896  0.00  0.00    +0.210 HD
ENDBRANCH  50  51
ENDBRANCH  42  50
ENDBRANCH  37  38
ENDBRANCH  22  37
BRANCH  21  53
ATOM     53  O   UNL     1     103.442 141.289  69.028  0.00  0.00    -0.459 OA
BRANCH  53  54
ATOM     54  C   UNL     1     103.658 140.499  70.112  0.00  0.00    +0.304 C 
ATOM     55  O   UNL     1     102.951 140.458  71.110  0.00  0.00    -0.251 OA
ATOM     56  C   UNL     1     104.861 139.627  69.892  0.00  0.00    +0.136 C 
ENDBRANCH  53  54
ENDBRANCH  21  53
TORSDOF 14
ENDMDL
MODEL 5
REMARK VINA RESULT:     0.002      5.693     11.231
REMARK INTER + INTRA:          -2.940
REMARK INTER:                   0.000
REMARK INTRA:                  -2.940
REMARK UNBOUND:                -2.944
REMARK  Name = 
REMARK  22 active torsions:
REMARK  status: ('A' for Active; 'I' for Inactive)
REMARK    1  A    between atoms: C_1  and  C_2
REMARK    2  A    between atoms: C_2  and  C_3
REMARK    3  A    between atoms: C_2  and  C_6
REMARK    4  A    between atoms: C_3  and  C_4
REMARK    5  A    between atoms: C_3  and  C_5
REMARK    6  A    between atoms: C_6  and  C_50
REMARK    7  A    between atoms: C_9  and  C_49
REMARK    8  A    between atoms: C_14  and  C_48
REMARK    9  A    between atoms: C_17  and  O_47
REMARK   10  A    between atoms: C_22  and  C_27
REMARK   11  A    between atoms: C_23  and  C_24
REMARK   12  A    between atoms: C_24  and  O_26
REMARK   13  A    between atoms: C_29  and  O_43
REMARK   14  A    between atoms: C_30  and  O_31
REMARK   15  A    between atoms: O_31  and  C_32
REMARK   16  A    between atoms: C_33  and  O_42
REMARK   17  A    between atoms: C_34  and  O_41
REMARK   18  A    between atoms: C_35  and  O_40
REMARK   19  A    between atoms: C_36  and  C_38
REMARK   20  A    between atoms: C_38  and  O_39
REMARK   21  A    between atoms: O_43  and  C_44
REMARK   22  A    between atoms: C_44  and  C_46
REMARK                            x       y       z     vdW  Elec       q    Type
REMARK                         _______ _______ _______ _____ _____    ______ ____
ROOT
ATOM      1  C   UNL     1     100.250 135.846  66.770  0.00  0.00    -0.016 C 
ATOM      2  C   UNL     1      99.118 135.496  67.798  0.00  0.00    +0.008 C 
ATOM      3  C   UNL     1      97.672 135.454  67.377  0.00  0.00    +0.008 C 
ATOM      4  C   UNL     1      97.411 135.025  65.924  0.00  0.00    -0.019 C 
ATOM      5  C   UNL     1      96.330 133.911  65.863  0.00  0.00    +0.022 C 
ATOM      6  C   UNL     1      95.118 134.045  66.791  0.00  0.00    +0.009 C 
ATOM      7  C   UNL     1      94.298 132.796  66.591  0.00  0.00    +0.006 C 
ATOM      8  C   UNL     1      93.756 132.698  65.164  0.00  0.00    +0.015 C 
ATOM      9  C   UNL     1      92.257 132.975  65.019  0.00  0.00    +0.025 C 
ATOM     10  C   UNL     1      91.973 134.484  65.026  0.00  0.00    +0.172 C 
ATOM     11  O   UNL     1      92.512 135.071  63.856  0.00  0.00    -0.350 OA
ATOM     12  C   UNL     1      93.921 134.989  63.849  0.00  0.00    +0.257 C 
ATOM     13  C   UNL     1      94.499 133.532  64.064  0.00  0.00    +0.050 C 
ATOM     14  C   UNL     1      95.969 133.650  64.408  0.00  0.00    -0.059 C 
ATOM     15  C   UNL     1      96.916 133.729  63.452  0.00  0.00    -0.026 C 
ATOM     16  C   UNL     1      98.324 134.140  63.700  0.00  0.00    +0.035 C 
ATOM     17  C   UNL     1      98.702 134.398  65.196  0.00  0.00    -0.009 C 
ATOM     18  C   UNL     1      99.942 135.368  65.288  0.00  0.00    +0.110 C 
ATOM     19  C   UNL     1      99.121 133.005  65.772  0.00  0.00    +0.013 C 
ATOM     20  C   UNL     1      94.306 132.712  62.779  0.00  0.00    +0.063 C 
ATOM     21  C   UNL     1      92.847 132.465  62.458  0.00  0.00    +0.207 C 
ATOM     22  C   UNL     1      91.866 132.324  63.668  0.00  0.00    +0.170 C 
ATOM     23  C   UNL     1      91.417 132.341  66.150  0.00  0.00    +0.016 C 
ATOM     24  C   UNL     1      96.822 136.296  65.220  0.00  0.00    +0.012 C 
ATOM     25  C   UNL     1     101.465 135.085  67.416  0.00  0.00    +0.012 C 
ENDROOT
BRANCH   1  27
ATOM     26  C   UNL     1     100.147 138.128  68.157  0.00  0.00    +0.008 C 
ATOM     27  C   UNL     1     100.494 137.445  66.819  0.00  0.00    -0.005 C 
BRANCH  27  28
ATOM     28  C   UNL     1      99.900 138.312  65.656  0.00  0.00    -0.014 C 
ATOM     29  C   UNL     1      98.833 139.359  66.027  0.00  0.00    +0.007 C 
ATOM     30  C   UNL     1     101.021 139.073  64.929  0.00  0.00    +0.007 C 
ENDBRANCH  27  28
ENDBRANCH   1  27
BRANCH  18  31
ATOM     31  C   UNL     1     101.119 134.865  64.362  0.00  0.00    +0.309 C 
ATOM     32  O   UNL     1     101.648 133.757  64.455  0.00  0.00    -0.251 OA
BRANCH  31  33
ATOM     33  O   UNL     1     101.513 135.647  63.347  0.00  0.00    -0.480 OA
ATOM     34  H   UNL     1     102.374 136.065  63.426  0.00  0.00    +0.295 HD
ENDBRANCH  31  33
ENDBRANCH  18  31
BRANCH  12  35
ATOM     35  O   UNL     1      94.300 135.519  62.587  0.00  0.00    -0.366 OA
ATOM     36  H   UNL     1      94.523 134.721  62.071  0.00  0.00    +0.213 HD
ENDBRANCH  12  35
BRANCH  22  37
ATOM     37  O   UNL     1      90.573 132.836  63.354  0.00  0.00    -0.341 OA
BRANCH  37  38
ATOM     38  C   UNL     1      90.340 133.110  61.987  0.00  0.00    +0.282 C 
ATOM     39  C   UNL     1      89.278 132.151  61.435  0.00  0.00    +0.201 C 
ATOM     40  C   UNL     1      88.427 132.854  60.372  0.00  0.00    +0.179 C 
ATOM     41  C   UNL     1      89.234 133.934  59.611  0.00  0.00    +0.177 C 
ATOM     42  C   UNL     1      90.025 134.883  60.541  0.00  0.00    +0.178 C 
ATOM     43  O   UNL     1      89.925 134.462  61.909  0.00  0.00    -0.341 OA
BRANCH  41  44
ATOM     44  O   UNL     1      90.217 133.283  58.776  0.00  0.00    -0.386 OA
ATOM     45  H   UNL     1      91.025 133.831  58.760  0.00  0.00    +0.210 HD
ENDBRANCH  41  44
BRANCH  40  46
ATOM     46  O   UNL     1      87.245 133.405  60.956  0.00  0.00    -0.386 OA
ATOM     47  H   UNL     1      87.268 133.178  61.904  0.00  0.00    +0.210 HD
ENDBRANCH  40  46
BRANCH  39  48
ATOM     48  O   UNL     1      89.852 130.967  60.821  0.00  0.00    -0.384 OA
ATOM     49  H   UNL     1      89.160 130.304  60.709  0.00  0.00    +0.210 HD
ENDBRANCH  39  48
BRANCH  42  50
ATOM     50  C   UNL     1      89.582 136.343  60.492  0.00  0.00    +0.190 C 
BRANCH  50  51
ATOM     51  O   UNL     1      88.183 136.419  60.799  0.00  0.00    -0.392 OA
ATOM     52  H   UNL     1      88.136 136.763  61.715  0.00  0.00    +0.210 HD
ENDBRANCH  50  51
ENDBRANCH  42  50
ENDBRANCH  37  38
ENDBRANCH  22  37
BRANCH  21  53
ATOM     53  O   UNL     1      92.809 131.168  61.770  0.00  0.00    -0.459 OA
BRANCH  53  54
ATOM     54  C   UNL     1      93.098 131.145  60.442  0.00  0.00    +0.304 C 
ATOM     55  O   UNL     1      92.582 131.858  59.593  0.00  0.00    -0.251 OA
ATOM     56  C   UNL     1      94.195 130.157  60.164  0.00  0.00    +0.136 C 
ENDBRANCH  53  54
ENDBRANCH  21  53
TORSDOF 14
ENDMDL
MODEL 6
REMARK VINA RESULT:     0.002      6.257     13.294
REMARK INTER + INTRA:          -2.940
REMARK INTER:                   0.000
REMARK INTRA:                  -2.940
REMARK UNBOUND:                -2.944
REMARK  Name = 
REMARK  22 active torsions:
REMARK  status: ('A' for Active; 'I' for Inactive)
REMARK    1  A    between atoms: C_1  and  C_2
REMARK    2  A    between atoms: C_2  and  C_3
REMARK    3  A    between atoms: C_2  and  C_6
REMARK    4  A    between atoms: C_3  and  C_4
REMARK    5  A    between atoms: C_3  and  C_5
REMARK    6  A    between atoms: C_6  and  C_50
REMARK    7  A    between atoms: C_9  and  C_49
REMARK    8  A    between atoms: C_14  and  C_48
REMARK    9  A    between atoms: C_17  and  O_47
REMARK   10  A    between atoms: C_22  and  C_27
REMARK   11  A    between atoms: C_23  and  C_24
REMARK   12  A    between atoms: C_24  and  O_26
REMARK   13  A    between atoms: C_29  and  O_43
REMARK   14  A    between atoms: C_30  and  O_31
REMARK   15  A    between atoms: O_31  and  C_32
REMARK   16  A    between atoms: C_33  and  O_42
REMARK   17  A    between atoms: C_34  and  O_41
REMARK   18  A    between atoms: C_35  and  O_40
REMARK   19  A    between atoms: C_36  and  C_38
REMARK   20  A    between atoms: C_38  and  O_39
REMARK   21  A    between atoms: O_43  and  C_44
REMARK   22  A    between atoms: C_44  and  C_46
REMARK                            x       y       z     vdW  Elec       q    Type
REMARK                         _______ _______ _______ _____ _____    ______ ____
ROOT
ATOM      1  C   UNL     1      86.716 133.511  67.085  0.00  0.00    -0.016 C 
ATOM      2  C   UNL     1      86.191 134.049  65.707  0.00  0.00    +0.008 C 
ATOM      3  C   UNL     1      86.506 133.329  64.422  0.00  0.00    +0.008 C 
ATOM      4  C   UNL     1      86.657 131.803  64.531  0.00  0.00    -0.019 C 
ATOM      5  C   UNL     1      85.802 131.086  63.450  0.00  0.00    +0.022 C 
ATOM      6  C   UNL     1      85.772 131.697  62.046  0.00  0.00    +0.009 C 
ATOM      7  C   UNL     1      84.804 130.864  61.246  0.00  0.00    +0.006 C 
ATOM      8  C   UNL     1      85.291 129.422  61.093  0.00  0.00    +0.015 C 
ATOM      9  C   UNL     1      85.812 129.057  59.700  0.00  0.00    +0.025 C 
ATOM     10  C   UNL     1      87.246 129.567  59.498  0.00  0.00    +0.172 C 
ATOM     11  O   UNL     1      88.123 128.857  60.353  0.00  0.00    -0.350 OA
ATOM     12  C   UNL     1      87.849 129.137  61.709  0.00  0.00    +0.257 C 
ATOM     13  C   UNL     1      86.343 128.914  62.138  0.00  0.00    +0.050 C 
ATOM     14  C   UNL     1      86.122 129.598  63.471  0.00  0.00    -0.059 C 
ATOM     15  C   UNL     1      86.396 128.982  64.638  0.00  0.00    -0.026 C 
ATOM     16  C   UNL     1      86.488 129.677  65.951  0.00  0.00    +0.035 C 
ATOM     17  C   UNL     1      86.148 131.203  65.935  0.00  0.00    -0.009 C 
ATOM     18  C   UNL     1      86.837 131.930  67.153  0.00  0.00    +0.110 C 
ATOM     19  C   UNL     1      84.597 131.293  66.120  0.00  0.00    +0.013 C 
ATOM     20  C   UNL     1      86.062 127.407  62.249  0.00  0.00    +0.063 C 
ATOM     21  C   UNL     1      86.154 126.697  60.915  0.00  0.00    +0.207 C 
ATOM     22  C   UNL     1      85.740 127.511  59.645  0.00  0.00    +0.170 C 
ATOM     23  C   UNL     1      84.948 129.647  58.563  0.00  0.00    +0.016 C 
ATOM     24  C   UNL     1      88.164 131.515  64.210  0.00  0.00    +0.012 C 
ATOM     25  C   UNL     1      85.611 134.080  68.049  0.00  0.00    +0.012 C 
ENDROOT
BRANCH   1  27
ATOM     26  C   UNL     1      88.354 135.594  66.736  0.00  0.00    +0.008 C 
ATOM     27  C   UNL     1      88.143 134.212  67.386  0.00  0.00    -0.005 C 
BRANCH  27  28
ATOM     28  C   UNL     1      89.439 133.358  67.158  0.00  0.00    -0.014 C 
ATOM     29  C   UNL     1      90.428 133.847  66.084  0.00  0.00    +0.007 C 
ATOM     30  C   UNL     1      90.239 133.240  68.466  0.00  0.00    +0.007 C 
ENDBRANCH  27  28
ENDBRANCH   1  27
BRANCH  18  31
ATOM     31  C   UNL     1      86.528 131.174  68.506  0.00  0.00    +0.309 C 
ATOM     32  O   UNL     1      85.395 130.962  68.938  0.00  0.00    -0.251 OA
BRANCH  31  33
ATOM     33  O   UNL     1      87.552 130.643  69.189  0.00  0.00    -0.480 OA
ATOM     34  H   UNL     1      88.049 131.233  69.761  0.00  0.00    +0.295 HD
ENDBRANCH  31  33
ENDBRANCH  18  31
BRANCH  12  35
ATOM     35  O   UNL     1      88.728 128.287  62.431  0.00  0.00    -0.366 OA
ATOM     36  H   UNL     1      88.280 128.186  63.292  0.00  0.00    +0.213 HD
ENDBRANCH  12  35
BRANCH  22  37
ATOM     37  O   UNL     1      86.507 127.129  58.506  0.00  0.00    -0.341 OA
BRANCH  37  38
ATOM     38  C   UNL     1      87.274 125.951  58.654  0.00  0.00    +0.282 C 
ATOM     39  C   UNL     1      86.732 124.855  57.728  0.00  0.00    +0.201 C 
ATOM     40  C   UNL     1      87.877 123.972  57.221  0.00  0.00    +0.179 C 
ATOM     41  C   UNL     1      89.029 123.876  58.251  0.00  0.00    +0.177 C 
ATOM     42  C   UNL     1      89.468 125.246  58.816  0.00  0.00    +0.178 C 
ATOM     43  O   UNL     1      88.612 126.295  58.340  0.00  0.00    -0.341 OA
BRANCH  41  44
ATOM     44  O   UNL     1      88.579 123.102  59.385  0.00  0.00    -0.386 OA
ATOM     45  H   UNL     1      88.692 123.638  60.193  0.00  0.00    +0.210 HD
ENDBRANCH  41  44
BRANCH  40  46
ATOM     46  O   UNL     1      88.351 124.437  55.956  0.00  0.00    -0.386 OA
ATOM     47  H   UNL     1      88.593 123.647  55.438  0.00  0.00    +0.210 HD
ENDBRANCH  40  46
BRANCH  39  48
ATOM     48  O   UNL     1      85.770 123.988  58.384  0.00  0.00    -0.384 OA
ATOM     49  H   UNL     1      86.239 123.396  58.986  0.00  0.00    +0.210 HD
ENDBRANCH  39  48
BRANCH  42  50
ATOM     50  C   UNL     1      90.899 125.651  58.474  0.00  0.00    +0.190 C 
BRANCH  50  51
ATOM     51  O   UNL     1      91.061 125.641  57.049  0.00  0.00    -0.392 OA
ATOM     52  H   UNL     1      91.004 126.579  56.774  0.00  0.00    +0.210 HD
ENDBRANCH  50  51
ENDBRANCH  42  50
ENDBRANCH  37  38
ENDBRANCH  22  37
BRANCH  21  53
ATOM     53  O   UNL     1      85.201 125.583  60.995  0.00  0.00    -0.459 OA
BRANCH  53  54
ATOM     54  C   UNL     1      85.604 124.446  61.621  0.00  0.00    +0.304 C 
ATOM     55  O   UNL     1      86.636 123.834  61.383  0.00  0.00    -0.251 OA
ATOM     56  C   UNL     1      84.630 124.073  62.703  0.00  0.00    +0.136 C 
ENDBRANCH  53  54
ENDBRANCH  21  53
TORSDOF 14
ENDMDL
MODEL 7
REMARK VINA RESULT:     0.003      7.255     12.172
REMARK INTER + INTRA:          -2.939
REMARK INTER:                   0.000
REMARK INTRA:                  -2.939
REMARK UNBOUND:                -2.944
REMARK  Name = 
REMARK  22 active torsions:
REMARK  status: ('A' for Active; 'I' for Inactive)
REMARK    1  A    between atoms: C_1  and  C_2
REMARK    2  A    between atoms: C_2  and  C_3
REMARK    3  A    between atoms: C_2  and  C_6
REMARK    4  A    between atoms: C_3  and  C_4
REMARK    5  A    between atoms: C_3  and  C_5
REMARK    6  A    between atoms: C_6  and  C_50
REMARK    7  A    between atoms: C_9  and  C_49
REMARK    8  A    between atoms: C_14  and  C_48
REMARK    9  A    between atoms: C_17  and  O_47
REMARK   10  A    between atoms: C_22  and  C_27
REMARK   11  A    between atoms: C_23  and  C_24
REMARK   12  A    between atoms: C_24  and  O_26
REMARK   13  A    between atoms: C_29  and  O_43
REMARK   14  A    between atoms: C_30  and  O_31
REMARK   15  A    between atoms: O_31  and  C_32
REMARK   16  A    between atoms: C_33  and  O_42
REMARK   17  A    between atoms: C_34  and  O_41
REMARK   18  A    between atoms: C_35  and  O_40
REMARK   19  A    between atoms: C_36  and  C_38
REMARK   20  A    between atoms: C_38  and  O_39
REMARK   21  A    between atoms: O_43  and  C_44
REMARK   22  A    between atoms: C_44  and  C_46
REMARK                            x       y       z     vdW  Elec       q    Type
REMARK                         _______ _______ _______ _____ _____    ______ ____
ROOT
ATOM      1  C   UNL     1      99.028 144.044  69.311  0.00  0.00    -0.016 C 
ATOM      2  C   UNL     1      97.826 143.886  68.315  0.00  0.00    +0.008 C 
ATOM      3  C   UNL     1      97.857 142.855  67.217  0.00  0.00    +0.008 C 
ATOM      4  C   UNL     1      98.639 141.570  67.530  0.00  0.00    -0.019 C 
ATOM      5  C   UNL     1      97.789 140.313  67.196  0.00  0.00    +0.022 C 
ATOM      6  C   UNL     1      96.953 140.340  65.913  0.00  0.00    +0.009 C 
ATOM      7  C   UNL     1      96.170 139.051  65.895  0.00  0.00    +0.006 C 
ATOM      8  C   UNL     1      97.089 137.832  65.801  0.00  0.00    +0.015 C 
ATOM      9  C   UNL     1      97.103 137.134  64.439  0.00  0.00    +0.025 C 
ATOM     10  C   UNL     1      97.995 137.888  63.442  0.00  0.00    +0.172 C 
ATOM     11  O   UNL     1      99.346 137.792  63.854  0.00  0.00    -0.350 OA
ATOM     12  C   UNL     1      99.554 138.466  65.077  0.00  0.00    +0.257 C 
ATOM     13  C   UNL     1      98.579 138.032  66.244  0.00  0.00    +0.050 C 
ATOM     14  C   UNL     1      98.659 139.073  67.341  0.00  0.00    -0.059 C 
ATOM     15  C   UNL     1      99.602 139.018  68.302  0.00  0.00    -0.026 C 
ATOM     16  C   UNL     1      99.928 140.142  69.222  0.00  0.00    +0.035 C 
ATOM     17  C   UNL     1      99.027 141.413  69.083  0.00  0.00    -0.009 C 
ATOM     18  C   UNL     1      99.792 142.686  69.615  0.00  0.00    +0.110 C 
ATOM     19  C   UNL     1      97.791 141.159  70.008  0.00  0.00    +0.013 C 
ATOM     20  C   UNL     1      99.000 136.652  66.774  0.00  0.00    +0.063 C 
ATOM     21  C   UNL     1      98.825 135.554  65.746  0.00  0.00    +0.207 C 
ATOM     22  C   UNL     1      97.644 135.712  64.732  0.00  0.00    +0.170 C 
ATOM     23  C   UNL     1      95.697 137.022  63.808  0.00  0.00    +0.016 C 
ATOM     24  C   UNL     1      99.864 141.586  66.552  0.00  0.00    +0.012 C 
ATOM     25  C   UNL     1      98.280 144.618  70.569  0.00  0.00    +0.012 C 
ENDROOT
BRANCH   1  27
ATOM     26  C   UNL     1      99.396 146.204  67.780  0.00  0.00    +0.008 C 
ATOM     27  C   UNL     1     100.041 145.150  68.702  0.00  0.00    -0.005 C 
BRANCH  27  28
ATOM     28  C   UNL     1     101.358 144.640  68.021  0.00  0.00    -0.014 C 
ATOM     29  C   UNL     1     101.541 144.942  66.522  0.00  0.00    +0.007 C 
ATOM     30  C   UNL     1     102.589 145.219  68.736  0.00  0.00    +0.007 C 
ENDBRANCH  27  28
ENDBRANCH   1  27
BRANCH  18  31
ATOM     31  C   UNL     1     100.388 142.424  71.055  0.00  0.00    +0.309 C 
ATOM     32  O   UNL     1      99.716 142.096  72.033  0.00  0.00    -0.251 OA
BRANCH  31  33
ATOM     33  O   UNL     1     101.718 142.465  71.213  0.00  0.00    -0.480 OA
ATOM     34  H   UNL     1     102.124 143.334  71.273  0.00  0.00    +0.295 HD
ENDBRANCH  31  33
ENDBRANCH  18  31
BRANCH  12  35
ATOM     35  O   UNL     1     100.910 138.197  65.403  0.00  0.00    -0.366 OA
ATOM     36  H   UNL     1     101.334 138.107  64.528  0.00  0.00    +0.213 HD
ENDBRANCH  12  35
BRANCH  22  37
ATOM     37  O   UNL     1      97.970 135.154  63.461  0.00  0.00    -0.341 OA
BRANCH  37  38
ATOM     38  C   UNL     1      99.133 134.353  63.426  0.00  0.00    +0.282 C 
ATOM     39  C   UNL     1      98.755 132.895  63.137  0.00  0.00    +0.201 C 
ATOM     40  C   UNL     1      99.847 132.216  62.304  0.00  0.00    +0.179 C 
ATOM     41  C   UNL     1     101.248 132.804  62.603  0.00  0.00    +0.177 C 
ATOM     42  C   UNL     1     101.286 134.349  62.587  0.00  0.00    +0.178 C 
ATOM     43  O   UNL     1      99.968 134.893  62.417  0.00  0.00    -0.341 OA
BRANCH  41  44
ATOM     44  O   UNL     1     101.647 132.409  63.934  0.00  0.00    -0.386 OA
ATOM     45  H   UNL     1     100.933 131.872  64.327  0.00  0.00    +0.210 HD
ENDBRANCH  41  44
BRANCH  40  46
ATOM     46  O   UNL     1      99.539 132.294  60.911  0.00  0.00    -0.386 OA
ATOM     47  H   UNL     1     100.389 132.265  60.433  0.00  0.00    +0.210 HD
ENDBRANCH  40  46
BRANCH  39  48
ATOM     48  O   UNL     1      98.578 132.109  64.346  0.00  0.00    -0.384 OA
ATOM     49  H   UNL     1      97.933 132.549  64.914  0.00  0.00    +0.210 HD
ENDBRANCH  39  48
BRANCH  42  50
ATOM     50  C   UNL     1     102.162 134.956  61.495  0.00  0.00    +0.190 C 
BRANCH  50  51
ATOM     51  O   UNL     1     101.724 134.470  60.219  0.00  0.00    -0.392 OA
ATOM     52  H   UNL     1     102.185 135.024  59.556  0.00  0.00    +0.210 HD
ENDBRANCH  50  51
ENDBRANCH  42  50
ENDBRANCH  37  38
ENDBRANCH  22  37
BRANCH  21  53
ATOM     53  O   UNL     1      98.522 134.340  66.514  0.00  0.00    -0.459 OA
BRANCH  53  54
ATOM     54  C   UNL     1      99.563 133.655  67.056  0.00  0.00    +0.304 C 
ATOM     55  O   UNL     1     100.560 133.288  66.451  0.00  0.00    -0.251 OA
ATOM     56  C   UNL     1      99.350 133.463  68.531  0.00  0.00    +0.136 C 
ENDBRANCH  53  54
ENDBRANCH  21  53
TORSDOF 14
ENDMDL
MODEL 8
REMARK VINA RESULT:     0.003      7.023     10.039
REMARK INTER + INTRA:          -2.939
REMARK INTER:                   0.000
REMARK INTRA:                  -2.939
REMARK UNBOUND:                -2.944
REMARK  Name = 
REMARK  22 active torsions:
REMARK  status: ('A' for Active; 'I' for Inactive)
REMARK    1  A    between atoms: C_1  and  C_2
REMARK    2  A    between atoms: C_2  and  C_3
REMARK    3  A    between atoms: C_2  and  C_6
REMARK    4  A    between atoms: C_3  and  C_4
REMARK    5  A    between atoms: C_3  and  C_5
REMARK    6  A    between atoms: C_6  and  C_50
REMARK    7  A    between atoms: C_9  and  C_49
REMARK    8  A    between atoms: C_14  and  C_48
REMARK    9  A    between atoms: C_17  and  O_47
REMARK   10  A    between atoms: C_22  and  C_27
REMARK   11  A    between atoms: C_23  and  C_24
REMARK   12  A    between atoms: C_24  and  O_26
REMARK   13  A    between atoms: C_29  and  O_43
REMARK   14  A    between atoms: C_30  and  O_31
REMARK   15  A    between atoms: O_31  and  C_32
REMARK   16  A    between atoms: C_33  and  O_42
REMARK   17  A    between atoms: C_34  and  O_41
REMARK   18  A    between atoms: C_35  and  O_40
REMARK   19  A    between atoms: C_36  and  C_38
REMARK   20  A    between atoms: C_38  and  O_39
REMARK   21  A    between atoms: O_43  and  C_44
REMARK   22  A    between atoms: C_44  and  C_46
REMARK                            x       y       z     vdW  Elec       q    Type
REMARK                         _______ _______ _______ _____ _____    ______ ____
ROOT
ATOM      1  C   UNL     1      86.587 129.586  70.757  0.00  0.00    -0.016 C 
ATOM      2  C   UNL     1      87.775 129.943  71.718  0.00  0.00    +0.008 C 
ATOM      3  C   UNL     1      88.306 131.350  71.807  0.00  0.00    +0.008 C 
ATOM      4  C   UNL     1      87.278 132.468  71.573  0.00  0.00    -0.019 C 
ATOM      5  C   UNL     1      87.351 133.531  72.703  0.00  0.00    +0.022 C 
ATOM      6  C   UNL     1      88.739 133.939  73.207  0.00  0.00    +0.009 C 
ATOM      7  C   UNL     1      88.506 134.894  74.350  0.00  0.00    +0.006 C 
ATOM      8  C   UNL     1      87.809 136.173  73.885  0.00  0.00    +0.015 C 
ATOM      9  C   UNL     1      88.703 137.415  73.828  0.00  0.00    +0.025 C 
ATOM     10  C   UNL     1      89.563 137.417  72.555  0.00  0.00    +0.172 C 
ATOM     11  O   UNL     1      88.729 137.582  71.424  0.00  0.00    -0.350 OA
ATOM     12  C   UNL     1      87.873 136.472  71.256  0.00  0.00    +0.257 C 
ATOM     13  C   UNL     1      87.018 136.099  72.534  0.00  0.00    +0.050 C 
ATOM     14  C   UNL     1      86.456 134.706  72.338  0.00  0.00    -0.059 C 
ATOM     15  C   UNL     1      85.299 134.495  71.680  0.00  0.00    -0.026 C 
ATOM     16  C   UNL     1      84.842 133.165  71.194  0.00  0.00    +0.035 C 
ATOM     17  C   UNL     1      85.754 131.953  71.579  0.00  0.00    -0.009 C 
ATOM     18  C   UNL     1      85.544 130.767  70.561  0.00  0.00    +0.110 C 
ATOM     19  C   UNL     1      85.264 131.486  72.989  0.00  0.00    +0.013 C 
ATOM     20  C   UNL     1      85.885 137.122  72.707  0.00  0.00    +0.063 C 
ATOM     21  C   UNL     1      86.397 138.511  73.023  0.00  0.00    +0.207 C 
ATOM     22  C   UNL     1      87.718 138.610  73.856  0.00  0.00    +0.170 C 
ATOM     23  C   UNL     1      89.663 137.519  75.034  0.00  0.00    +0.016 C 
ATOM     24  C   UNL     1      87.724 133.163  70.240  0.00  0.00    +0.012 C 
ATOM     25  C   UNL     1      85.974 128.350  71.512  0.00  0.00    +0.012 C 
ENDROOT
BRANCH   1  27
ATOM     26  C   UNL     1      88.628 128.524  69.398  0.00  0.00    +0.008 C 
ATOM     27  C   UNL     1      87.211 129.128  69.336  0.00  0.00    -0.005 C 
BRANCH  27  28
ATOM     28  C   UNL     1      87.166 130.155  68.152  0.00  0.00    -0.014 C 
ATOM     29  C   UNL     1      88.513 130.635  67.580  0.00  0.00    +0.007 C 
ATOM     30  C   UNL     1      86.373 129.574  66.970  0.00  0.00    +0.007 C 
ENDBRANCH  27  28
ENDBRANCH   1  27
BRANCH  18  31
ATOM     31  C   UNL     1      84.008 130.439  70.388  0.00  0.00    +0.309 C 
ATOM     32  O   UNL     1      83.258 130.124  71.313  0.00  0.00    -0.251 OA
BRANCH  31  33
ATOM     33  O   UNL     1      83.452 130.602  69.180  0.00  0.00    -0.480 OA
ATOM     34  H   UNL     1      82.561 130.961  69.153  0.00  0.00    +0.295 HD
ENDBRANCH  31  33
ENDBRANCH  18  31
BRANCH  12  35
ATOM     35  O   UNL     1      87.043 136.828  70.160  0.00  0.00    -0.366 OA
ATOM     36  H   UNL     1      87.448 137.655  69.836  0.00  0.00    +0.213 HD
ENDBRANCH  12  35
BRANCH  22  37
ATOM     37  O   UNL     1      88.486 139.752  73.483  0.00  0.00    -0.341 OA
BRANCH  37  38
ATOM     38  C   UNL     1      87.821 140.695  72.667  0.00  0.00    +0.282 C 
ATOM     39  C   UNL     1      87.622 142.006  73.438  0.00  0.00    +0.201 C 
ATOM     40  C   UNL     1      87.716 143.203  72.486  0.00  0.00    +0.179 C 
ATOM     41  C   UNL     1      87.230 142.844  71.060  0.00  0.00    +0.177 C 
ATOM     42  C   UNL     1      87.836 141.531  70.513  0.00  0.00    +0.178 C 
ATOM     43  O   UNL     1      88.627 140.875  71.515  0.00  0.00    -0.341 OA
BRANCH  41  44
ATOM     44  O   UNL     1      85.800 142.641  71.090  0.00  0.00    -0.386 OA
ATOM     45  H   UNL     1      85.622 141.683  71.141  0.00  0.00    +0.210 HD
ENDBRANCH  41  44
BRANCH  40  46
ATOM     46  O   UNL     1      89.045 143.726  72.463  0.00  0.00    -0.386 OA
ATOM     47  H   UNL     1      89.642 142.971  72.305  0.00  0.00    +0.210 HD
ENDBRANCH  40  46
BRANCH  39  48
ATOM     48  O   UNL     1      86.334 142.078  74.104  0.00  0.00    -0.384 OA
ATOM     49  H   UNL     1      85.659 142.319  73.457  0.00  0.00    +0.210 HD
ENDBRANCH  39  48
BRANCH  42  50
ATOM     50  C   UNL     1      88.726 141.700  69.285  0.00  0.00    +0.190 C 
BRANCH  50  51
ATOM     51  O   UNL     1      89.776 142.627  69.592  0.00  0.00    -0.392 OA
ATOM     52  H   UNL     1      90.153 142.890  68.727  0.00  0.00    +0.210 HD
ENDBRANCH  50  51
ENDBRANCH  42  50
ENDBRANCH  37  38
ENDBRANCH  22  37
BRANCH  21  53
ATOM     53  O   UNL     1      85.361 139.133  73.857  0.00  0.00    -0.459 OA
BRANCH  53  54
ATOM     54  C   UNL     1      84.285 139.679  73.232  0.00  0.00    +0.304 C 
ATOM     55  O   UNL     1      84.335 140.482  72.310  0.00  0.00    -0.251 OA
ATOM     56  C   UNL     1      83.012 139.109  73.789  0.00  0.00    +0.136 C 
ENDBRANCH  53  54
ENDBRANCH  21  53
TORSDOF 14
ENDMDL
MODEL 9
REMARK VINA RESULT:     0.003      7.563     10.358
REMARK INTER + INTRA:          -2.939
REMARK INTER:                   0.000
REMARK INTRA:                  -2.939
REMARK UNBOUND:                -2.944
REMARK  Name = 
REMARK  22 active torsions:
REMARK  status: ('A' for Active; 'I' for Inactive)
REMARK    1  A    between atoms: C_1  and  C_2
REMARK    2  A    between atoms: C_2  and  C_3
REMARK    3  A    between atoms: C_2  and  C_6
REMARK    4  A    between atoms: C_3  and  C_4
REMARK    5  A    between atoms: C_3  and  C_5
REMARK    6  A    between atoms: C_6  and  C_50
REMARK    7  A    between atoms: C_9  and  C_49
REMARK    8  A    between atoms: C_14  and  C_48
REMARK    9  A    between atoms: C_17  and  O_47
REMARK   10  A    between atoms: C_22  and  C_27
REMARK   11  A    between atoms: C_23  and  C_24
REMARK   12  A    between atoms: C_24  and  O_26
REMARK   13  A    between atoms: C_29  and  O_43
REMARK   14  A    between atoms: C_30  and  O_31
REMARK   15  A    between atoms: O_31  and  C_32
REMARK   16  A    between atoms: C_33  and  O_42
REMARK   17  A    between atoms: C_34  and  O_41
REMARK   18  A    between atoms: C_35  and  O_40
REMARK   19  A    between atoms: C_36  and  C_38
REMARK   20  A    between atoms: C_38  and  O_39
REMARK   21  A    between atoms: O_43  and  C_44
REMARK   22  A    between atoms: C_44  and  C_46
REMARK                            x       y       z     vdW  Elec       q    Type
REMARK                         _______ _______ _______ _____ _____    ______ ____
ROOT
ATOM      1  C   UNL     1      92.133 134.155  63.358  0.00  0.00    -0.016 C 
ATOM      2  C   UNL     1      91.718 134.766  64.742  0.00  0.00    +0.008 C 
ATOM      3  C   UNL     1      92.522 135.872  65.376  0.00  0.00    +0.008 C 
ATOM      4  C   UNL     1      93.217 136.836  64.400  0.00  0.00    -0.019 C 
ATOM      5  C   UNL     1      92.921 138.313  64.781  0.00  0.00    +0.022 C 
ATOM      6  C   UNL     1      92.931 138.680  66.268  0.00  0.00    +0.009 C 
ATOM      7  C   UNL     1      92.523 140.129  66.345  0.00  0.00    +0.006 C 
ATOM      8  C   UNL     1      93.541 141.040  65.656  0.00  0.00    +0.015 C 
ATOM      9  C   UNL     1      94.417 141.866  66.601  0.00  0.00    +0.025 C 
ATOM     10  C   UNL     1      95.561 141.017  67.175  0.00  0.00    +0.172 C 
ATOM     11  O   UNL     1      96.460 140.675  66.137  0.00  0.00    -0.350 OA
ATOM     12  C   UNL     1      95.846 139.827  65.190  0.00  0.00    +0.257 C 
ATOM     13  C   UNL     1      94.486 140.374  64.597  0.00  0.00    +0.050 C 
ATOM     14  C   UNL     1      93.771 139.228  63.912  0.00  0.00    -0.059 C 
ATOM     15  C   UNL     1      94.030 138.896  62.632  0.00  0.00    -0.026 C 
ATOM     16  C   UNL     1      93.599 137.623  61.993  0.00  0.00    +0.035 C 
ATOM     17  C   UNL     1      92.715 136.686  62.879  0.00  0.00    -0.009 C 
ATOM     18  C   UNL     1      92.830 135.194  62.381  0.00  0.00    +0.110 C 
ATOM     19  C   UNL     1      91.242 137.165  62.663  0.00  0.00    +0.013 C 
ATOM     20  C   UNL     1      94.783 141.503  63.598  0.00  0.00    +0.063 C 
ATOM     21  C   UNL     1      95.391 142.722  64.259  0.00  0.00    +0.207 C 
ATOM     22  C   UNL     1      94.949 143.030  65.728  0.00  0.00    +0.170 C 
ATOM     23  C   UNL     1      93.628 142.446  67.796  0.00  0.00    +0.016 C 
ATOM     24  C   UNL     1      94.751 136.592  64.605  0.00  0.00    +0.012 C 
ATOM     25  C   UNL     1      90.734 133.668  62.833  0.00  0.00    +0.012 C 
ENDROOT
BRANCH   1  27
ATOM     26  C   UNL     1      92.893 132.182  64.993  0.00  0.00    +0.008 C 
ATOM     27  C   UNL     1      93.102 132.890  63.640  0.00  0.00    -0.005 C 
BRANCH  27  28
ATOM     28  C   UNL     1      94.643 133.085  63.420  0.00  0.00    -0.014 C 
ATOM     29  C   UNL     1      95.558 132.928  64.648  0.00  0.00    +0.007 C 
ATOM     30  C   UNL     1      95.161 132.099  62.360  0.00  0.00    +0.007 C 
ENDBRANCH  27  28
ENDBRANCH   1  27
BRANCH  18  31
ATOM     31  C   UNL     1      92.579 135.100  60.823  0.00  0.00    +0.309 C 
ATOM     32  O   UNL     1      91.553 135.485  60.263  0.00  0.00    -0.251 OA
BRANCH  31  33
ATOM     33  O   UNL     1      93.575 134.662  60.041  0.00  0.00    -0.480 OA
ATOM     34  H   UNL     1      93.520 134.870  59.105  0.00  0.00    +0.295 HD
ENDBRANCH  31  33
ENDBRANCH  18  31
BRANCH  12  35
ATOM     35  O   UNL     1      96.827 139.659  64.177  0.00  0.00    -0.366 OA
ATOM     36  H   UNL     1      97.319 140.502  64.204  0.00  0.00    +0.213 HD
ENDBRANCH  12  35
BRANCH  22  37
ATOM     37  O   UNL     1      96.007 143.623  66.478  0.00  0.00    -0.341 OA
BRANCH  37  38
ATOM     38  C   UNL     1      97.119 144.060  65.724  0.00  0.00    +0.282 C 
ATOM     39  C   UNL     1      97.221 145.589  65.781  0.00  0.00    +0.201 C 
ATOM     40  C   UNL     1      98.689 146.026  65.757  0.00  0.00    +0.179 C 
ATOM     41  C   UNL     1      99.572 145.033  64.961  0.00  0.00    +0.177 C 
ATOM     42  C   UNL     1      99.342 143.554  65.348  0.00  0.00    +0.178 C 
ATOM     43  O   UNL     1      98.260 143.432  66.283  0.00  0.00    -0.341 OA
BRANCH  41  44
ATOM     44  O   UNL     1      99.242 145.134  63.558  0.00  0.00    -0.386 OA
ATOM     45  H   UNL     1      98.282 145.287  63.473  0.00  0.00    +0.210 HD
ENDBRANCH  41  44
BRANCH  40  46
ATOM     46  O   UNL     1      99.183 146.208  67.084  0.00  0.00    -0.386 OA
ATOM     47  H   UNL     1      99.762 146.993  67.064  0.00  0.00    +0.210 HD
ENDBRANCH  40  46
BRANCH  39  48
ATOM     48  O   UNL     1      96.554 146.240  64.668  0.00  0.00    -0.384 OA
ATOM     49  H   UNL     1      97.074 147.005  64.394  0.00  0.00    +0.210 HD
ENDBRANCH  39  48
BRANCH  42  50
ATOM     50  C   UNL     1     100.549 142.861  65.972  0.00  0.00    +0.190 C 
BRANCH  50  51
ATOM     51  O   UNL     1     100.973 143.604  67.123  0.00  0.00    -0.392 OA
ATOM     52  H   UNL     1     100.790 143.023  67.891  0.00  0.00    +0.210 HD
ENDBRANCH  50  51
ENDBRANCH  42  50
ENDBRANCH  37  38
ENDBRANCH  22  37
BRANCH  21  53
ATOM     53  O   UNL     1      94.935 143.870  63.465  0.00  0.00    -0.459 OA
BRANCH  53  54
ATOM     54  C   UNL     1      95.612 144.161  62.323  0.00  0.00    +0.304 C 
ATOM     55  O   UNL     1      96.824 144.300  62.235  0.00  0.00    -0.251 OA
ATOM     56  C   UNL     1      94.666 144.225  61.157  0.00  0.00    +0.136 C 
ENDBRANCH  53  54
ENDBRANCH  21  53
TORSDOF 14
ENDMDL
