MODEL 1
REMARK VINA RESULT:    -6.077      0.000      0.000
REMARK INTER + INTRA:          -9.350
REMARK INTER:                  -8.741
REMARK INTRA:                  -0.608
REMARK UNBOUND:                -0.608
REMARK  Name = 
REMARK  11 active torsions:
REMARK  status: ('A' for Active; 'I' for Inactive)
REMARK    1  A    between atoms: C_1  and  O_2
REMARK    2  A    between atoms: O_2  and  C_3
REMARK    3  A    between atoms: C_5  and  C_21
REMARK    4  A    between atoms: C_7  and  C_10
REMARK    5  A    between atoms: C_8  and  O_9
REMARK    6  A    between atoms: C_11  and  C_12
REMARK    7  A    between atoms: C_14  and  O_19
REMARK    8  A    between atoms: C_15  and  O_18
REMARK    9  A    between atoms: O_19  and  C_20
REMARK   10  A    between atoms: C_22  and  C_23
REMARK   11  A    between atoms: C_23  and  O_25
REMARK                            x       y       z     vdW  Elec       q    Type
REMARK                         _______ _______ _______ _____ _____    ______ ____
ROOT
ATOM      1  C   UNL     1      81.816 126.239  67.597  0.00  0.00    +0.162 A 
ATOM      2  C   UNL     1      82.973 125.474  67.762  0.00  0.00    +0.057 A 
ATOM      3  C   UNL     1      84.188 125.864  67.178  0.00  0.00    -0.021 A 
ATOM      4  C   UNL     1      84.243 127.069  66.460  0.00  0.00    +0.019 A 
ATOM      5  C   UNL     1      83.098 127.863  66.294  0.00  0.00    +0.021 A 
ATOM      6  C   UNL     1      81.885 127.430  66.856  0.00  0.00    +0.166 A 
ENDROOT
BRANCH   1   8
ATOM      7  C   UNL     1      80.365 126.219  69.498  0.00  0.00    +0.277 C 
ATOM      8  O   UNL     1      80.590 125.919  68.127  0.00  0.00    -0.491 OA
ENDBRANCH   1   8
BRANCH   6   9
ATOM      9  O   UNL     1      80.731 128.164  66.714  0.00  0.00    -0.503 OA
ATOM     10  H   UNL     1      80.085 127.643  66.214  0.00  0.00    +0.292 HD
ENDBRANCH   6   9
BRANCH   5  11
ATOM     11  C   UNL     1      83.220 129.145  65.581  0.00  0.00    +0.012 C 
ATOM     12  C   UNL     1      83.411 130.315  66.213  0.00  0.00    +0.009 C 
BRANCH  12  13
ATOM     13  C   UNL     1      83.590 131.611  65.531  0.00  0.00    -0.021 A 
ATOM     14  C   UNL     1      82.929 131.949  64.340  0.00  0.00    +0.057 A 
ATOM     15  C   UNL     1      83.102 133.195  63.701  0.00  0.00    +0.162 A 
ATOM     16  C   UNL     1      83.963 134.122  64.291  0.00  0.00    +0.158 A 
ATOM     17  C   UNL     1      84.614 133.807  65.489  0.00  0.00    +0.050 A 
ATOM     18  C   UNL     1      84.424 132.569  66.108  0.00  0.00    +0.012 A 
BRANCH  16  19
ATOM     19  O   UNL     1      84.274 135.365  63.822  0.00  0.00    -0.503 OA
ATOM     20  H   UNL     1      84.036 136.037  64.468  0.00  0.00    +0.292 HD
ENDBRANCH  16  19
BRANCH  15  21
ATOM     21  O   UNL     1      82.365 133.269  62.554  0.00  0.00    -0.491 OA
ATOM     22  C   UNL     1      82.976 133.341  61.281  0.00  0.00    +0.277 C 
ENDBRANCH  15  21
ENDBRANCH  12  13
ENDBRANCH   5  11
BRANCH   3  23
ATOM     23  C   UNL     1      85.422 125.081  67.363  0.00  0.00    +0.015 C 
ATOM     24  C   UNL     1      85.552 124.068  68.238  0.00  0.00    +0.092 C 
BRANCH  24  25
ATOM     25  C   UNL     1      86.838 123.357  68.346  0.00  0.00    +0.330 C 
ATOM     26  O   UNL     1      87.059 122.253  67.882  0.00  0.00    -0.246 OA
BRANCH  25  27
ATOM     27  O   UNL     1      87.762 124.070  69.019  0.00  0.00    -0.478 OA
ATOM     28  H   UNL     1      88.655 123.683  69.055  0.00  0.00    +0.295 HD
ENDBRANCH  25  27
ENDBRANCH  24  25
ENDBRANCH   3  23
TORSDOF 9
ENDMDL
MODEL 2
REMARK VINA RESULT:    -5.669      1.682      2.227
REMARK INTER + INTRA:          -8.763
REMARK INTER:                  -8.099
REMARK INTRA:                  -0.664
REMARK UNBOUND:                -0.608
REMARK  Name = 
REMARK  11 active torsions:
REMARK  status: ('A' for Active; 'I' for Inactive)
REMARK    1  A    between atoms: C_1  and  O_2
REMARK    2  A    between atoms: O_2  and  C_3
REMARK    3  A    between atoms: C_5  and  C_21
REMARK    4  A    between atoms: C_7  and  C_10
REMARK    5  A    between atoms: C_8  and  O_9
REMARK    6  A    between atoms: C_11  and  C_12
REMARK    7  A    between atoms: C_14  and  O_19
REMARK    8  A    between atoms: C_15  and  O_18
REMARK    9  A    between atoms: O_19  and  C_20
REMARK   10  A    between atoms: C_22  and  C_23
REMARK   11  A    between atoms: C_23  and  O_25
REMARK                            x       y       z     vdW  Elec       q    Type
REMARK                         _______ _______ _______ _____ _____    ______ ____
ROOT
ATOM      1  C   UNL     1      80.686 127.141  68.266  0.00  0.00    +0.162 A 
ATOM      2  C   UNL     1      81.678 126.175  68.449  0.00  0.00    +0.057 A 
ATOM      3  C   UNL     1      82.692 125.987  67.497  0.00  0.00    -0.021 A 
ATOM      4  C   UNL     1      82.729 126.822  66.369  0.00  0.00    +0.019 A 
ATOM      5  C   UNL     1      81.753 127.810  66.170  0.00  0.00    +0.021 A 
ATOM      6  C   UNL     1      80.727 127.952  67.120  0.00  0.00    +0.166 A 
ENDROOT
BRANCH   1   8
ATOM      7  C   UNL     1      78.917 126.258  69.611  0.00  0.00    +0.277 C 
ATOM      8  O   UNL     1      79.659 127.377  69.145  0.00  0.00    -0.491 OA
ENDBRANCH   1   8
BRANCH   6   9
ATOM      9  O   UNL     1      79.740 128.896  66.968  0.00  0.00    -0.503 OA
ATOM     10  H   UNL     1      80.141 129.730  66.681  0.00  0.00    +0.292 HD
ENDBRANCH   6   9
BRANCH   5  11
ATOM     11  C   UNL     1      81.868 128.696  65.001  0.00  0.00    +0.012 C 
ATOM     12  C   UNL     1      82.482 129.890  65.048  0.00  0.00    +0.009 C 
BRANCH  12  13
ATOM     13  C   UNL     1      82.662 130.782  63.887  0.00  0.00    -0.021 A 
ATOM     14  C   UNL     1      82.762 130.314  62.568  0.00  0.00    +0.057 A 
ATOM     15  C   UNL     1      82.927 131.178  61.464  0.00  0.00    +0.162 A 
ATOM     16  C   UNL     1      82.985 132.551  61.708  0.00  0.00    +0.158 A 
ATOM     17  C   UNL     1      82.867 133.034  63.016  0.00  0.00    +0.050 A 
ATOM     18  C   UNL     1      82.699 132.162  64.094  0.00  0.00    +0.012 A 
BRANCH  16  19
ATOM     19  O   UNL     1      83.157 133.540  60.783  0.00  0.00    -0.503 OA
ATOM     20  H   UNL     1      82.392 133.592  60.202  0.00  0.00    +0.292 HD
ENDBRANCH  16  19
BRANCH  15  21
ATOM     21  O   UNL     1      83.016 130.476  60.296  0.00  0.00    -0.491 OA
ATOM     22  C   UNL     1      84.264 130.146  59.720  0.00  0.00    +0.277 C 
ENDBRANCH  15  21
ENDBRANCH  12  13
ENDBRANCH   5  11
BRANCH   3  23
ATOM     23  C   UNL     1      83.758 124.989  67.687  0.00  0.00    +0.015 C 
ATOM     24  C   UNL     1      84.745 125.100  68.594  0.00  0.00    +0.092 C 
BRANCH  24  25
ATOM     25  C   UNL     1      85.767 124.042  68.693  0.00  0.00    +0.330 C 
ATOM     26  O   UNL     1      85.543 122.851  68.581  0.00  0.00    -0.246 OA
BRANCH  25  27
ATOM     27  O   UNL     1      86.998 124.542  68.919  0.00  0.00    -0.478 OA
ATOM     28  H   UNL     1      87.355 124.404  69.815  0.00  0.00    +0.295 HD
ENDBRANCH  25  27
ENDBRANCH  24  25
ENDBRANCH   3  23
TORSDOF 9
ENDMDL
MODEL 3
REMARK VINA RESULT:    -5.513      2.136      8.724
REMARK INTER + INTRA:          -8.538
REMARK INTER:                  -7.860
REMARK INTRA:                  -0.678
REMARK UNBOUND:                -0.608
REMARK  Name = 
REMARK  11 active torsions:
REMARK  status: ('A' for Active; 'I' for Inactive)
REMARK    1  A    between atoms: C_1  and  O_2
REMARK    2  A    between atoms: O_2  and  C_3
REMARK    3  A    between atoms: C_5  and  C_21
REMARK    4  A    between atoms: C_7  and  C_10
REMARK    5  A    between atoms: C_8  and  O_9
REMARK    6  A    between atoms: C_11  and  C_12
REMARK    7  A    between atoms: C_14  and  O_19
REMARK    8  A    between atoms: C_15  and  O_18
REMARK    9  A    between atoms: O_19  and  C_20
REMARK   10  A    between atoms: C_22  and  C_23
REMARK   11  A    between atoms: C_23  and  O_25
REMARK                            x       y       z     vdW  Elec       q    Type
REMARK                         _______ _______ _______ _____ _____    ______ ____
ROOT
ATOM      1  C   UNL     1      82.535 133.068  63.782  0.00  0.00    +0.162 A 
ATOM      2  C   UNL     1      83.394 133.836  64.572  0.00  0.00    +0.057 A 
ATOM      3  C   UNL     1      84.121 133.258  65.624  0.00  0.00    -0.021 A 
ATOM      4  C   UNL     1      84.013 131.877  65.848  0.00  0.00    +0.019 A 
ATOM      5  C   UNL     1      83.169 131.081  65.058  0.00  0.00    +0.021 A 
ATOM      6  C   UNL     1      82.423 131.691  64.035  0.00  0.00    +0.166 A 
ENDROOT
BRANCH   1   8
ATOM      7  C   UNL     1      82.459 134.297  61.732  0.00  0.00    +0.277 C 
ATOM      8  O   UNL     1      81.785 133.561  62.743  0.00  0.00    -0.491 OA
ENDBRANCH   1   8
BRANCH   6   9
ATOM      9  O   UNL     1      81.574 130.960  63.239  0.00  0.00    -0.503 OA
ATOM     10  H   UNL     1      81.063 130.352  63.796  0.00  0.00    +0.292 HD
ENDBRANCH   6   9
BRANCH   5  11
ATOM     11  C   UNL     1      83.135 129.629  65.296  0.00  0.00    +0.012 C 
ATOM     12  C   UNL     1      83.992 129.005  66.121  0.00  0.00    +0.009 C 
BRANCH  12  13
ATOM     13  C   UNL     1      83.957 127.561  66.424  0.00  0.00    -0.021 A 
ATOM     14  C   UNL     1      85.078 126.725  66.310  0.00  0.00    +0.057 A 
ATOM     15  C   UNL     1      85.033 125.347  66.609  0.00  0.00    +0.162 A 
ATOM     16  C   UNL     1      83.820 124.808  67.042  0.00  0.00    +0.158 A 
ATOM     17  C   UNL     1      82.698 125.633  67.179  0.00  0.00    +0.050 A 
ATOM     18  C   UNL     1      82.766 126.997  66.882  0.00  0.00    +0.012 A 
BRANCH  16  19
ATOM     19  O   UNL     1      83.570 123.505  67.361  0.00  0.00    -0.503 OA
ATOM     20  H   UNL     1      84.138 123.223  68.085  0.00  0.00    +0.292 HD
ENDBRANCH  16  19
BRANCH  15  21
ATOM     21  O   UNL     1      86.246 124.755  66.400  0.00  0.00    -0.491 OA
ATOM     22  C   UNL     1      86.955 124.123  67.447  0.00  0.00    +0.277 C 
ENDBRANCH  15  21
ENDBRANCH  12  13
ENDBRANCH   5  11
BRANCH   3  23
ATOM     23  C   UNL     1      85.048 134.050  66.451  0.00  0.00    +0.015 C 
ATOM     24  C   UNL     1      84.678 134.773  67.522  0.00  0.00    +0.092 C 
BRANCH  24  25
ATOM     25  C   UNL     1      85.691 135.536  68.274  0.00  0.00    +0.330 C 
ATOM     26  O   UNL     1      85.439 136.333  69.160  0.00  0.00    -0.246 OA
BRANCH  25  27
ATOM     27  O   UNL     1      86.945 135.251  67.874  0.00  0.00    -0.478 OA
ATOM     28  H   UNL     1      87.049 135.019  66.934  0.00  0.00    +0.295 HD
ENDBRANCH  25  27
ENDBRANCH  24  25
ENDBRANCH   3  23
TORSDOF 9
ENDMDL
MODEL 4
REMARK VINA RESULT:    -5.291      1.867      8.575
REMARK INTER + INTRA:          -8.219
REMARK INTER:                  -7.481
REMARK INTRA:                  -0.738
REMARK UNBOUND:                -0.608
REMARK  Name = 
REMARK  11 active torsions:
REMARK  status: ('A' for Active; 'I' for Inactive)
REMARK    1  A    between atoms: C_1  and  O_2
REMARK    2  A    between atoms: O_2  and  C_3
REMARK    3  A    between atoms: C_5  and  C_21
REMARK    4  A    between atoms: C_7  and  C_10
REMARK    5  A    between atoms: C_8  and  O_9
REMARK    6  A    between atoms: C_11  and  C_12
REMARK    7  A    between atoms: C_14  and  O_19
REMARK    8  A    between atoms: C_15  and  O_18
REMARK    9  A    between atoms: O_19  and  C_20
REMARK   10  A    between atoms: C_22  and  C_23
REMARK   11  A    between atoms: C_23  and  O_25
REMARK                            x       y       z     vdW  Elec       q    Type
REMARK                         _______ _______ _______ _____ _____    ______ ____
ROOT
ATOM      1  C   UNL     1      82.520 132.495  62.620  0.00  0.00    +0.162 A 
ATOM      2  C   UNL     1      83.088 133.486  63.423  0.00  0.00    +0.057 A 
ATOM      3  C   UNL     1      83.511 133.206  64.731  0.00  0.00    -0.021 A 
ATOM      4  C   UNL     1      83.401 131.892  65.215  0.00  0.00    +0.019 A 
ATOM      5  C   UNL     1      82.847 130.875  64.423  0.00  0.00    +0.021 A 
ATOM      6  C   UNL     1      82.397 131.191  63.130  0.00  0.00    +0.166 A 
ENDROOT
BRANCH   1   8
ATOM      7  C   UNL     1      81.093 133.700  61.127  0.00  0.00    +0.277 C 
ATOM      8  O   UNL     1      82.074 132.693  61.337  0.00  0.00    -0.491 OA
ENDBRANCH   1   8
BRANCH   6   9
ATOM      9  O   UNL     1      81.837 130.236  62.316  0.00  0.00    -0.503 OA
ATOM     10  H   UNL     1      81.337 130.674  61.611  0.00  0.00    +0.292 HD
ENDBRANCH   6   9
BRANCH   5  11
ATOM     11  C   UNL     1      82.806 129.504  64.955  0.00  0.00    +0.012 C 
ATOM     12  C   UNL     1      83.852 128.929  65.572  0.00  0.00    +0.009 C 
BRANCH  12  13
ATOM     13  C   UNL     1      83.831 127.577  66.163  0.00  0.00    -0.021 A 
ATOM     14  C   UNL     1      82.684 127.008  66.738  0.00  0.00    +0.057 A 
ATOM     15  C   UNL     1      82.675 125.711  67.294  0.00  0.00    +0.162 A 
ATOM     16  C   UNL     1      83.860 124.973  67.259  0.00  0.00    +0.158 A 
ATOM     17  C   UNL     1      85.006 125.520  66.672  0.00  0.00    +0.050 A 
ATOM     18  C   UNL     1      84.992 126.804  66.122  0.00  0.00    +0.012 A 
BRANCH  16  19
ATOM     19  O   UNL     1      84.057 123.718  67.756  0.00  0.00    -0.503 OA
ATOM     20  H   UNL     1      84.253 123.757  68.697  0.00  0.00    +0.292 HD
ENDBRANCH  16  19
BRANCH  15  21
ATOM     21  O   UNL     1      81.447 125.400  67.803  0.00  0.00    -0.491 OA
ATOM     22  C   UNL     1      80.601 126.386  68.360  0.00  0.00    +0.277 C 
ENDBRANCH  15  21
ENDBRANCH  12  13
ENDBRANCH   5  11
BRANCH   3  23
ATOM     23  C   UNL     1      84.135 134.235  65.581  0.00  0.00    +0.015 C 
ATOM     24  C   UNL     1      84.587 134.013  66.828  0.00  0.00    +0.092 C 
BRANCH  24  25
ATOM     25  C   UNL     1      85.188 135.121  67.594  0.00  0.00    +0.330 C 
ATOM     26  O   UNL     1      85.440 135.081  68.784  0.00  0.00    -0.246 OA
BRANCH  25  27
ATOM     27  O   UNL     1      85.438 136.197  66.824  0.00  0.00    -0.478 OA
ATOM     28  H   UNL     1      86.270 136.173  66.317  0.00  0.00    +0.295 HD
ENDBRANCH  25  27
ENDBRANCH  24  25
ENDBRANCH   3  23
TORSDOF 9
ENDMDL
MODEL 5
REMARK VINA RESULT:    -5.222      3.101      8.357
REMARK INTER + INTRA:          -8.119
REMARK INTER:                  -7.402
REMARK INTRA:                  -0.718
REMARK UNBOUND:                -0.608
REMARK  Name = 
REMARK  11 active torsions:
REMARK  status: ('A' for Active; 'I' for Inactive)
REMARK    1  A    between atoms: C_1  and  O_2
REMARK    2  A    between atoms: O_2  and  C_3
REMARK    3  A    between atoms: C_5  and  C_21
REMARK    4  A    between atoms: C_7  and  C_10
REMARK    5  A    between atoms: C_8  and  O_9
REMARK    6  A    between atoms: C_11  and  C_12
REMARK    7  A    between atoms: C_14  and  O_19
REMARK    8  A    between atoms: C_15  and  O_18
REMARK    9  A    between atoms: O_19  and  C_20
REMARK   10  A    between atoms: C_22  and  C_23
REMARK   11  A    between atoms: C_23  and  O_25
REMARK                            x       y       z     vdW  Elec       q    Type
REMARK                         _______ _______ _______ _____ _____    ______ ____
ROOT
ATOM      1  C   UNL     1      82.232 132.956  62.254  0.00  0.00    +0.162 A 
ATOM      2  C   UNL     1      82.639 132.302  61.089  0.00  0.00    +0.057 A 
ATOM      3  C   UNL     1      83.090 130.973  61.124  0.00  0.00    -0.021 A 
ATOM      4  C   UNL     1      83.082 130.284  62.346  0.00  0.00    +0.019 A 
ATOM      5  C   UNL     1      82.664 130.914  63.528  0.00  0.00    +0.021 A 
ATOM      6  C   UNL     1      82.252 132.257  63.472  0.00  0.00    +0.166 A 
ENDROOT
BRANCH   1   8
ATOM      7  C   UNL     1      80.573 134.562  61.634  0.00  0.00    +0.277 C 
ATOM      8  O   UNL     1      81.788 134.254  62.302  0.00  0.00    -0.491 OA
ENDBRANCH   1   8
BRANCH   6   9
ATOM      9  O   UNL     1      81.843 132.925  64.601  0.00  0.00    -0.503 OA
ATOM     10  H   UNL     1      82.146 133.844  64.552  0.00  0.00    +0.292 HD
ENDBRANCH   6   9
BRANCH   5  11
ATOM     11  C   UNL     1      82.621 130.131  64.773  0.00  0.00    +0.012 C 
ATOM     12  C   UNL     1      83.458 129.110  65.022  0.00  0.00    +0.009 C 
BRANCH  12  13
ATOM     13  C   UNL     1      83.479 128.337  66.278  0.00  0.00    -0.021 A 
ATOM     14  C   UNL     1      83.680 126.948  66.322  0.00  0.00    +0.057 A 
ATOM     15  C   UNL     1      83.706 126.220  67.530  0.00  0.00    +0.162 A 
ATOM     16  C   UNL     1      83.529 126.922  68.724  0.00  0.00    +0.158 A 
ATOM     17  C   UNL     1      83.346 128.309  68.698  0.00  0.00    +0.050 A 
ATOM     18  C   UNL     1      83.330 129.012  67.490  0.00  0.00    +0.012 A 
BRANCH  16  19
ATOM     19  O   UNL     1      83.504 126.400  69.984  0.00  0.00    -0.503 OA
ATOM     20  H   UNL     1      84.396 126.195  70.279  0.00  0.00    +0.292 HD
ENDBRANCH  16  19
BRANCH  15  21
ATOM     21  O   UNL     1      83.898 124.888  67.300  0.00  0.00    -0.491 OA
ATOM     22  C   UNL     1      85.054 124.405  66.646  0.00  0.00    +0.277 C 
ENDBRANCH  15  21
ENDBRANCH  12  13
ENDBRANCH   5  11
BRANCH   3  23
ATOM     23  C   UNL     1      83.500 130.262  59.900  0.00  0.00    +0.015 C 
ATOM     24  C   UNL     1      84.587 129.476  59.810  0.00  0.00    +0.092 C 
BRANCH  24  25
ATOM     25  C   UNL     1      84.908 128.818  58.531  0.00  0.00    +0.330 C 
ATOM     26  O   UNL     1      84.623 129.262  57.434  0.00  0.00    -0.246 OA
BRANCH  25  27
ATOM     27  O   UNL     1      85.568 127.656  58.706  0.00  0.00    -0.478 OA
ATOM     28  H   UNL     1      85.012 126.869  58.851  0.00  0.00    +0.295 HD
ENDBRANCH  25  27
ENDBRANCH  24  25
ENDBRANCH   3  23
TORSDOF 9
ENDMDL
MODEL 6
REMARK VINA RESULT:    -5.186     18.252     22.066
REMARK INTER + INTRA:          -8.068
REMARK INTER:                  -7.359
REMARK INTRA:                  -0.709
REMARK UNBOUND:                -0.608
REMARK  Name = 
REMARK  11 active torsions:
REMARK  status: ('A' for Active; 'I' for Inactive)
REMARK    1  A    between atoms: C_1  and  O_2
REMARK    2  A    between atoms: O_2  and  C_3
REMARK    3  A    between atoms: C_5  and  C_21
REMARK    4  A    between atoms: C_7  and  C_10
REMARK    5  A    between atoms: C_8  and  O_9
REMARK    6  A    between atoms: C_11  and  C_12
REMARK    7  A    between atoms: C_14  and  O_19
REMARK    8  A    between atoms: C_15  and  O_18
REMARK    9  A    between atoms: O_19  and  C_20
REMARK   10  A    between atoms: C_22  and  C_23
REMARK   11  A    between atoms: C_23  and  O_25
REMARK                            x       y       z     vdW  Elec       q    Type
REMARK                         _______ _______ _______ _____ _____    ______ ____
ROOT
ATOM      1  C   UNL     1     104.414 138.556  65.999  0.00  0.00    +0.162 A 
ATOM      2  C   UNL     1     103.197 138.978  65.458  0.00  0.00    +0.057 A 
ATOM      3  C   UNL     1     102.032 138.209  65.607  0.00  0.00    -0.021 A 
ATOM      4  C   UNL     1     102.091 137.023  66.356  0.00  0.00    +0.019 A 
ATOM      5  C   UNL     1     103.298 136.586  66.922  0.00  0.00    +0.021 A 
ATOM      6  C   UNL     1     104.458 137.355  66.726  0.00  0.00    +0.166 A 
ENDROOT
BRANCH   1   8
ATOM      7  C   UNL     1     105.777 140.063  64.738  0.00  0.00    +0.277 C 
ATOM      8  O   UNL     1     105.595 139.246  65.887  0.00  0.00    -0.491 OA
ENDBRANCH   1   8
BRANCH   6   9
ATOM      9  O   UNL     1     105.668 136.968  67.249  0.00  0.00    -0.503 OA
ATOM     10  H   UNL     1     106.129 136.410  66.603  0.00  0.00    +0.292 HD
ENDBRANCH   6   9
BRANCH   5  11
ATOM     11  C   UNL     1     103.295 135.366  67.746  0.00  0.00    +0.012 C 
ATOM     12  C   UNL     1     102.167 134.797  68.201  0.00  0.00    +0.009 C 
BRANCH  12  13
ATOM     13  C   UNL     1     102.122 133.547  68.985  0.00  0.00    -0.021 A 
ATOM     14  C   UNL     1     103.119 133.179  69.901  0.00  0.00    +0.057 A 
ATOM     15  C   UNL     1     103.061 131.984  70.650  0.00  0.00    +0.162 A 
ATOM     16  C   UNL     1     101.958 131.147  70.467  0.00  0.00    +0.158 A 
ATOM     17  C   UNL     1     100.946 131.511  69.571  0.00  0.00    +0.050 A 
ATOM     18  C   UNL     1     101.021 132.701  68.843  0.00  0.00    +0.012 A 
BRANCH  16  19
ATOM     19  O   UNL     1     101.728 129.950  71.079  0.00  0.00    -0.503 OA
ATOM     20  H   UNL     1     102.292 129.856  71.853  0.00  0.00    +0.292 HD
ENDBRANCH  16  19
BRANCH  15  21
ATOM     21  O   UNL     1     104.157 131.850  71.453  0.00  0.00    -0.491 OA
ATOM     22  C   UNL     1     105.410 131.445  70.939  0.00  0.00    +0.277 C 
ENDBRANCH  15  21
ENDBRANCH  12  13
ENDBRANCH   5  11
BRANCH   3  23
ATOM     23  C   UNL     1     100.737 138.652  65.063  0.00  0.00    +0.015 C 
ATOM     24  C   UNL     1     100.034 137.976  64.138  0.00  0.00    +0.092 C 
BRANCH  24  25
ATOM     25  C   UNL     1      98.750 138.517  63.657  0.00  0.00    +0.330 C 
ATOM     26  O   UNL     1      98.639 139.399  62.826  0.00  0.00    -0.246 OA
BRANCH  25  27
ATOM     27  O   UNL     1      97.693 137.917  64.240  0.00  0.00    -0.478 OA
ATOM     28  H   UNL     1      97.553 138.124  65.181  0.00  0.00    +0.295 HD
ENDBRANCH  25  27
ENDBRANCH  24  25
ENDBRANCH   3  23
TORSDOF 9
ENDMDL
MODEL 7
REMARK VINA RESULT:    -5.151     13.941     15.867
REMARK INTER + INTRA:          -8.017
REMARK INTER:                  -7.348
REMARK INTRA:                  -0.669
REMARK UNBOUND:                -0.608
REMARK  Name = 
REMARK  11 active torsions:
REMARK  status: ('A' for Active; 'I' for Inactive)
REMARK    1  A    between atoms: C_1  and  O_2
REMARK    2  A    between atoms: O_2  and  C_3
REMARK    3  A    between atoms: C_5  and  C_21
REMARK    4  A    between atoms: C_7  and  C_10
REMARK    5  A    between atoms: C_8  and  O_9
REMARK    6  A    between atoms: C_11  and  C_12
REMARK    7  A    between atoms: C_14  and  O_19
REMARK    8  A    between atoms: C_15  and  O_18
REMARK    9  A    between atoms: O_19  and  C_20
REMARK   10  A    between atoms: C_22  and  C_23
REMARK   11  A    between atoms: C_23  and  O_25
REMARK                            x       y       z     vdW  Elec       q    Type
REMARK                         _______ _______ _______ _____ _____    ______ ____
ROOT
ATOM      1  C   UNL     1      90.525 125.314  54.632  0.00  0.00    +0.162 A 
ATOM      2  C   UNL     1      89.752 124.713  55.629  0.00  0.00    +0.057 A 
ATOM      3  C   UNL     1      90.347 124.167  56.777  0.00  0.00    -0.021 A 
ATOM      4  C   UNL     1      91.737 124.275  56.941  0.00  0.00    +0.019 A 
ATOM      5  C   UNL     1      92.533 124.887  55.961  0.00  0.00    +0.021 A 
ATOM      6  C   UNL     1      91.917 125.392  54.803  0.00  0.00    +0.166 A 
ENDROOT
BRANCH   1   8
ATOM      7  C   UNL     1      89.147 126.974  53.604  0.00  0.00    +0.277 C 
ATOM      8  O   UNL     1      90.020 125.860  53.479  0.00  0.00    -0.491 OA
ENDBRANCH   1   8
BRANCH   6   9
ATOM      9  O   UNL     1      92.652 125.991  53.808  0.00  0.00    -0.503 OA
ATOM     10  H   UNL     1      93.183 126.705  54.193  0.00  0.00    +0.292 HD
ENDBRANCH   6   9
BRANCH   5  11
ATOM     11  C   UNL     1      93.978 125.026  56.205  0.00  0.00    +0.012 C 
ATOM     12  C   UNL     1      94.854 124.034  55.976  0.00  0.00    +0.009 C 
BRANCH  12  13
ATOM     13  C   UNL     1      96.314 124.151  56.160  0.00  0.00    -0.021 A 
ATOM     14  C   UNL     1      96.931 125.293  56.693  0.00  0.00    +0.057 A 
ATOM     15  C   UNL     1      98.327 125.391  56.871  0.00  0.00    +0.162 A 
ATOM     16  C   UNL     1      99.114 124.299  56.503  0.00  0.00    +0.158 A 
ATOM     17  C   UNL     1      98.512 123.146  55.987  0.00  0.00    +0.050 A 
ATOM     18  C   UNL     1      97.126 123.067  55.825  0.00  0.00    +0.012 A 
BRANCH  16  19
ATOM     19  O   UNL     1     100.474 124.206  56.580  0.00  0.00    -0.503 OA
ATOM     20  H   UNL     1     100.850 125.040  56.874  0.00  0.00    +0.292 HD
ENDBRANCH  16  19
BRANCH  15  21
ATOM     21  O   UNL     1      98.676 126.606  57.388  0.00  0.00    -0.491 OA
ATOM     22  C   UNL     1      98.953 127.716  56.558  0.00  0.00    +0.277 C 
ENDBRANCH  15  21
ENDBRANCH  12  13
ENDBRANCH   5  11
BRANCH   3  23
ATOM     23  C   UNL     1      89.543 123.552  57.848  0.00  0.00    +0.015 C 
ATOM     24  C   UNL     1      88.198 123.532  57.867  0.00  0.00    +0.092 C 
BRANCH  24  25
ATOM     25  C   UNL     1      87.494 122.895  58.995  0.00  0.00    +0.330 C 
ATOM     26  O   UNL     1      88.044 122.346  59.932  0.00  0.00    -0.246 OA
BRANCH  25  27
ATOM     27  O   UNL     1      86.155 122.991  58.881  0.00  0.00    -0.478 OA
ATOM     28  H   UNL     1      85.828 123.418  58.068  0.00  0.00    +0.295 HD
ENDBRANCH  25  27
ENDBRANCH  24  25
ENDBRANCH   3  23
TORSDOF 9
ENDMDL
MODEL 8
REMARK VINA RESULT:    -5.092     15.695     18.678
REMARK INTER + INTRA:          -7.932
REMARK INTER:                  -7.258
REMARK INTRA:                  -0.675
REMARK UNBOUND:                -0.608
REMARK  Name = 
REMARK  11 active torsions:
REMARK  status: ('A' for Active; 'I' for Inactive)
REMARK    1  A    between atoms: C_1  and  O_2
REMARK    2  A    between atoms: O_2  and  C_3
REMARK    3  A    between atoms: C_5  and  C_21
REMARK    4  A    between atoms: C_7  and  C_10
REMARK    5  A    between atoms: C_8  and  O_9
REMARK    6  A    between atoms: C_11  and  C_12
REMARK    7  A    between atoms: C_14  and  O_19
REMARK    8  A    between atoms: C_15  and  O_18
REMARK    9  A    between atoms: O_19  and  C_20
REMARK   10  A    between atoms: C_22  and  C_23
REMARK   11  A    between atoms: C_23  and  O_25
REMARK                            x       y       z     vdW  Elec       q    Type
REMARK                         _______ _______ _______ _____ _____    ______ ____
ROOT
ATOM      1  C   UNL     1     102.885 131.429  70.004  0.00  0.00    +0.162 A 
ATOM      2  C   UNL     1     103.031 132.647  69.335  0.00  0.00    +0.057 A 
ATOM      3  C   UNL     1     101.981 133.577  69.285  0.00  0.00    -0.021 A 
ATOM      4  C   UNL     1     100.785 133.290  69.963  0.00  0.00    +0.019 A 
ATOM      5  C   UNL     1     100.620 132.081  70.655  0.00  0.00    +0.021 A 
ATOM      6  C   UNL     1     101.673 131.151  70.658  0.00  0.00    +0.166 A 
ENDROOT
BRANCH   1   8
ATOM      7  C   UNL     1     105.167 130.881  70.464  0.00  0.00    +0.277 C 
ATOM      8  O   UNL     1     103.860 130.467  70.088  0.00  0.00    -0.491 OA
ENDBRANCH   1   8
BRANCH   6   9
ATOM      9  O   UNL     1     101.560 129.947  71.311  0.00  0.00    -0.503 OA
ATOM     10  H   UNL     1     100.623 129.702  71.364  0.00  0.00    +0.292 HD
ENDBRANCH   6   9
BRANCH   5  11
ATOM     11  C   UNL     1      99.370 131.853  71.397  0.00  0.00    +0.012 C 
ATOM     12  C   UNL     1      98.155 131.992  70.839  0.00  0.00    +0.009 C 
BRANCH  12  13
ATOM     13  C   UNL     1      96.882 131.723  71.535  0.00  0.00    -0.021 A 
ATOM     14  C   UNL     1      96.805 131.036  72.756  0.00  0.00    +0.057 A 
ATOM     15  C   UNL     1      95.582 130.790  73.416  0.00  0.00    +0.162 A 
ATOM     16  C   UNL     1      94.410 131.260  72.822  0.00  0.00    +0.158 A 
ATOM     17  C   UNL     1      94.472 131.964  71.614  0.00  0.00    +0.050 A 
ATOM     18  C   UNL     1      95.695 132.201  70.980  0.00  0.00    +0.012 A 
BRANCH  16  19
ATOM     19  O   UNL     1      93.137 131.110  73.290  0.00  0.00    -0.503 OA
ATOM     20  H   UNL     1      92.801 130.235  73.071  0.00  0.00    +0.292 HD
ENDBRANCH  16  19
BRANCH  15  21
ATOM     21  O   UNL     1      95.776 130.090  74.572  0.00  0.00    -0.491 OA
ATOM     22  C   UNL     1      95.672 130.705  75.840  0.00  0.00    +0.277 C 
ENDBRANCH  15  21
ENDBRANCH  12  13
ENDBRANCH   5  11
BRANCH   3  23
ATOM     23  C   UNL     1     102.128 134.875  68.604  0.00  0.00    +0.015 C 
ATOM     24  C   UNL     1     101.855 135.082  67.304  0.00  0.00    +0.092 C 
BRANCH  24  25
ATOM     25  C   UNL     1     102.046 136.423  66.722  0.00  0.00    +0.330 C 
ATOM     26  O   UNL     1     101.312 137.373  66.921  0.00  0.00    -0.246 OA
BRANCH  25  27
ATOM     27  O   UNL     1     103.141 136.489  65.940  0.00  0.00    -0.478 OA
ATOM     28  H   UNL     1     103.226 137.292  65.395  0.00  0.00    +0.295 HD
ENDBRANCH  25  27
ENDBRANCH  24  25
ENDBRANCH   3  23
TORSDOF 9
ENDMDL
MODEL 9
REMARK VINA RESULT:    -5.087     15.351     18.312
REMARK INTER + INTRA:          -7.925
REMARK INTER:                  -7.249
REMARK INTRA:                  -0.676
REMARK UNBOUND:                -0.608
REMARK  Name = 
REMARK  11 active torsions:
REMARK  status: ('A' for Active; 'I' for Inactive)
REMARK    1  A    between atoms: C_1  and  O_2
REMARK    2  A    between atoms: O_2  and  C_3
REMARK    3  A    between atoms: C_5  and  C_21
REMARK    4  A    between atoms: C_7  and  C_10
REMARK    5  A    between atoms: C_8  and  O_9
REMARK    6  A    between atoms: C_11  and  C_12
REMARK    7  A    between atoms: C_14  and  O_19
REMARK    8  A    between atoms: C_15  and  O_18
REMARK    9  A    between atoms: O_19  and  C_20
REMARK   10  A    between atoms: C_22  and  C_23
REMARK   11  A    between atoms: C_23  and  O_25
REMARK                            x       y       z     vdW  Elec       q    Type
REMARK                         _______ _______ _______ _____ _____    ______ ____
ROOT
ATOM      1  C   UNL     1     102.398 131.245  70.031  0.00  0.00    +0.162 A 
ATOM      2  C   UNL     1     102.488 132.459  69.347  0.00  0.00    +0.057 A 
ATOM      3  C   UNL     1     101.477 133.427  69.452  0.00  0.00    -0.021 A 
ATOM      4  C   UNL     1     100.385 133.181  70.299  0.00  0.00    +0.019 A 
ATOM      5  C   UNL     1     100.279 131.975  71.008  0.00  0.00    +0.021 A 
ATOM      6  C   UNL     1     101.286 131.007  70.856  0.00  0.00    +0.166 A 
ENDROOT
BRANCH   1   8
ATOM      7  C   UNL     1     104.705 130.620  70.088  0.00  0.00    +0.277 C 
ATOM      8  O   UNL     1     103.339 130.247  69.971  0.00  0.00    -0.491 OA
ENDBRANCH   1   8
BRANCH   6   9
ATOM      9  O   UNL     1     101.226 129.805  71.519  0.00  0.00    -0.503 OA
ATOM     10  H   UNL     1     100.404 129.766  72.031  0.00  0.00    +0.292 HD
ENDBRANCH   6   9
BRANCH   5  11
ATOM     11  C   UNL     1      99.144 131.789  71.926  0.00  0.00    +0.012 C 
ATOM     12  C   UNL     1      97.945 131.339  71.521  0.00  0.00    +0.009 C 
BRANCH  12  13
ATOM     13  C   UNL     1      96.800 131.091  72.419  0.00  0.00    -0.021 A 
ATOM     14  C   UNL     1      95.463 131.240  72.018  0.00  0.00    +0.057 A 
ATOM     15  C   UNL     1      94.377 130.993  72.883  0.00  0.00    +0.162 A 
ATOM     16  C   UNL     1      94.657 130.577  74.187  0.00  0.00    +0.158 A 
ATOM     17  C   UNL     1      95.984 130.405  74.595  0.00  0.00    +0.050 A 
ATOM     18  C   UNL     1      97.045 130.650  73.720  0.00  0.00    +0.012 A 
BRANCH  16  19
ATOM     19  O   UNL     1      93.752 130.307  75.172  0.00  0.00    -0.503 OA
ATOM     20  H   UNL     1      92.855 130.386  74.834  0.00  0.00    +0.292 HD
ENDBRANCH  16  19
BRANCH  15  21
ATOM     21  O   UNL     1      93.185 131.229  72.261  0.00  0.00    -0.491 OA
ATOM     22  C   UNL     1      92.480 132.441  72.437  0.00  0.00    +0.277 C 
ENDBRANCH  15  21
ENDBRANCH  12  13
ENDBRANCH   5  11
BRANCH   3  23
ATOM     23  C   UNL     1     101.569 134.722  68.756  0.00  0.00    +0.015 C 
ATOM     24  C   UNL     1     101.856 134.860  67.449  0.00  0.00    +0.092 C 
BRANCH  24  25
ATOM     25  C   UNL     1     101.931 136.208  66.857  0.00  0.00    +0.330 C 
ATOM     26  O   UNL     1     101.283 137.166  67.235  0.00  0.00    -0.246 OA
BRANCH  25  27
ATOM     27  O   UNL     1     102.812 136.269  65.839  0.00  0.00    -0.478 OA
ATOM     28  H   UNL     1     103.424 135.516  65.760  0.00  0.00    +0.295 HD
ENDBRANCH  25  27
ENDBRANCH  24  25
ENDBRANCH   3  23
TORSDOF 9
ENDMDL
