MODEL 1
REMARK VINA RESULT:    -9.202      0.000      0.000
REMARK INTER + INTRA:         -16.774
REMARK INTER:                 -15.120
REMARK INTRA:                  -1.654
REMARK UNBOUND:                -1.654
REMARK  Name = 456557
REMARK  15 active torsions:
REMARK  status: ('A' for Active; 'I' for Inactive)
REMARK    1  A    between atoms: O_2  and  C_17
REMARK    2  A    between atoms: O_3  and  C_18
REMARK    3  A    between atoms: O_4  and  C_22
REMARK    4  A    between atoms: O_7  and  C_27
REMARK    5  A    between atoms: O_10  and  C_35
REMARK    6  A    between atoms: N_11  and  C_19
REMARK    7  A    between atoms: N_12  and  CA_20
REMARK    8  A    between atoms: N_13  and  CA_21
REMARK    9  A    between atoms: C_16  and  CA_20
REMARK   10  A    between atoms: CA_20  and  C_22
REMARK   11  A    between atoms: CA_21  and  C_23
REMARK   12  A    between atoms: CA_21  and  C_24
REMARK   13  A    between atoms: C_23  and  C_27
REMARK   14  A    between atoms: C_23  and  C_28
REMARK   15  A    between atoms: C_27  and  C_30
REMARK                            x       y       z     vdW  Elec       q    Type
REMARK                         _______ _______ _______ _____ _____    ______ ____
ROOT
ATOM      1  CA  UNL     1      -5.103   4.373  -2.487  0.00  0.00    +0.213 C 
ENDROOT
BRANCH   1   3
ATOM      2  O   UNL     1      -5.900   6.418  -1.356  0.00  0.00    -0.345 OA
ATOM      3  C   UNL     1      -6.009   4.969  -1.379  0.00  0.00    +0.183 C 
ATOM      4  C   UNL     1      -7.508   4.684  -1.553  0.00  0.00    +0.178 C 
ATOM      5  C   UNL     1      -8.010   5.888  -2.342  0.00  0.00    +0.195 C 
ATOM      6  C   UNL     1      -7.181   6.992  -1.676  0.00  0.00    +0.255 C 
BRANCH   6   9
ATOM      7  O   UNL     1      -7.775   9.571  -0.762  0.00  0.00    -0.246 OA
ATOM      8  O   UNL     1      -7.249  11.406  -4.784  0.00  0.00    -0.268 OA
ATOM      9  N   UNL     1      -6.939   8.214  -2.439  0.00  0.00    -0.271 N 
ATOM     10  N   UNL     1      -7.101  10.532  -2.689  0.00  0.00    -0.275 N 
ATOM     11  C   UNL     1      -7.270   9.440  -1.879  0.00  0.00    +0.331 A 
ATOM     12  C   UNL     1      -6.583   8.104  -3.769  0.00  0.00    +0.098 A 
ATOM     13  C   UNL     1      -6.597   9.157  -4.591  0.00  0.00    +0.088 A 
ATOM     14  C   UNL     1      -6.994  10.462  -4.046  0.00  0.00    +0.254 A 
ATOM     15  H   UNL     1      -7.429  11.415  -2.331  0.00  0.00    +0.173 HD
ENDBRANCH   6   9
BRANCH   4  16
ATOM     16  O   UNL     1      -8.212   4.739  -0.286  0.00  0.00    -0.386 OA
ATOM     17  H   UNL     1      -7.627   5.157   0.374  0.00  0.00    +0.210 HD
ENDBRANCH   4  16
BRANCH   5  18
ATOM     18  O   UNL     1      -9.420   6.060  -2.163  0.00  0.00    -0.385 OA
ATOM     19  H   UNL     1      -9.535   6.221  -1.196  0.00  0.00    +0.210 HD
ENDBRANCH   5  18
ENDBRANCH   1   3
BRANCH   1  21
ATOM     20  O   UNL     1      -6.727   3.502  -4.708  0.00  0.00    -0.274 OA
ATOM     21  N   UNL     1      -5.385   2.999  -2.939  0.00  0.00    -0.299 N 
ATOM     22  C   UNL     1      -6.306   2.676  -3.906  0.00  0.00    +0.231 C 
ATOM     23  H   UNL     1      -5.244   2.243  -2.265  0.00  0.00    +0.150 HD
BRANCH  22  24
ATOM     24  CA  UNL     1      -6.782   1.201  -3.924  0.00  0.00    +0.143 C 
BRANCH  24  25
ATOM     25  N   UNL     1      -8.273   1.193  -3.876  0.00  0.00    -0.320 NA
ATOM     26  H1  UNL     1      -8.577   1.072  -2.909  0.00  0.00    +0.119 HD
ATOM     27  H2  UNL     1      -8.606   2.123  -4.139  0.00  0.00    +0.119 HD
ENDBRANCH  24  25
BRANCH  24  28
ATOM     28  C   UNL     1      -6.243   0.424  -5.153  0.00  0.00    +0.046 C 
ATOM     29  C   UNL     1      -7.292   0.325  -6.282  0.00  0.00    +0.012 C 
BRANCH  28  30
ATOM     30  C   UNL     1      -5.628  -0.970  -4.811  0.00  0.00    +0.168 C 
BRANCH  30  32
ATOM     31  N   UNL     1      -3.734   0.165  -3.713  0.00  0.00    -0.254 NA
ATOM     32  C   UNL     1      -4.418  -0.997  -3.884  0.00  0.00    +0.070 A 
ATOM     33  C   UNL     1      -4.126  -2.138  -3.131  0.00  0.00    +0.029 A 
ATOM     34  C   UNL     1      -3.076  -2.109  -2.217  0.00  0.00    +0.049 A 
ATOM     35  C   UNL     1      -2.727   0.168  -2.805  0.00  0.00    +0.156 A 
ATOM     36  C   UNL     1      -2.374  -0.933  -2.041  0.00  0.00    +0.135 A 
BRANCH  36  37
ATOM     37  O   UNL     1      -1.379  -0.909  -1.112  0.00  0.00    -0.505 OA
ATOM     38  H   UNL     1      -0.762  -0.190  -1.328  0.00  0.00    +0.292 HD
ENDBRANCH  36  37
ENDBRANCH  30  32
BRANCH  30  39
ATOM     39  O   UNL     1      -6.651  -1.775  -4.193  0.00  0.00    -0.385 OA
ATOM     40  H   UNL     1      -6.974  -1.246  -3.438  0.00  0.00    +0.210 HD
ENDBRANCH  30  39
ENDBRANCH  28  30
ENDBRANCH  24  28
ENDBRANCH  22  24
ENDBRANCH   1  21
BRANCH   1  42
ATOM     41  OXT UNL     1      -2.796   5.182  -2.364  0.00  0.00    -0.249 OA
ATOM     42  C   UNL     1      -3.654   4.397  -1.974  0.00  0.00    +0.328 C 
BRANCH  42  43
ATOM     43  O   UNL     1      -3.402   3.465  -1.022  0.00  0.00    -0.479 OA
ATOM     44  H   UNL     1      -4.001   2.684  -1.074  0.00  0.00    +0.295 HD
ENDBRANCH  42  43
ENDBRANCH   1  42
TORSDOF 14
ENDMDL
MODEL 2
REMARK VINA RESULT:    -9.128      3.665      9.401
REMARK INTER + INTRA:         -16.651
REMARK INTER:                 -14.705
REMARK INTRA:                  -1.946
REMARK UNBOUND:                -1.654
REMARK  Name = 456557
REMARK  15 active torsions:
REMARK  status: ('A' for Active; 'I' for Inactive)
REMARK    1  A    between atoms: O_2  and  C_17
REMARK    2  A    between atoms: O_3  and  C_18
REMARK    3  A    between atoms: O_4  and  C_22
REMARK    4  A    between atoms: O_7  and  C_27
REMARK    5  A    between atoms: O_10  and  C_35
REMARK    6  A    between atoms: N_11  and  C_19
REMARK    7  A    between atoms: N_12  and  CA_20
REMARK    8  A    between atoms: N_13  and  CA_21
REMARK    9  A    between atoms: C_16  and  CA_20
REMARK   10  A    between atoms: CA_20  and  C_22
REMARK   11  A    between atoms: CA_21  and  C_23
REMARK   12  A    between atoms: CA_21  and  C_24
REMARK   13  A    between atoms: C_23  and  C_27
REMARK   14  A    between atoms: C_23  and  C_28
REMARK   15  A    between atoms: C_27  and  C_30
REMARK                            x       y       z     vdW  Elec       q    Type
REMARK                         _______ _______ _______ _____ _____    ______ ____
ROOT
ATOM      1  CA  UNL     1      -2.289   2.451  -1.720  0.00  0.00    +0.213 C 
ENDROOT
BRANCH   1   3
ATOM      2  O   UNL     1      -0.298   2.745  -0.289  0.00  0.00    -0.345 OA
ATOM      3  C   UNL     1      -1.358   3.452  -0.987  0.00  0.00    +0.183 C 
ATOM      4  C   UNL     1      -0.636   4.448  -1.906  0.00  0.00    +0.178 C 
ATOM      5  C   UNL     1       0.683   3.750  -2.221  0.00  0.00    +0.195 C 
ATOM      6  C   UNL     1       0.972   3.123  -0.852  0.00  0.00    +0.255 C 
BRANCH   6   9
ATOM      7  O   UNL     1       3.740   3.192  -1.264  0.00  0.00    -0.246 OA
ATOM      8  O   UNL     1       4.052  -1.229  -1.704  0.00  0.00    -0.268 OA
ATOM      9  N   UNL     1       1.841   1.950  -0.812  0.00  0.00    -0.271 N 
ATOM     10  N   UNL     1       3.939   0.952  -1.065  0.00  0.00    -0.275 N 
ATOM     11  C   UNL     1       3.203   2.107  -1.026  0.00  0.00    +0.331 A 
ATOM     12  C   UNL     1       1.260   0.698  -0.768  0.00  0.00    +0.098 A 
ATOM     13  C   UNL     1       1.967  -0.414  -0.988  0.00  0.00    +0.088 A 
ATOM     14  C   UNL     1       3.402  -0.284  -1.271  0.00  0.00    +0.254 A 
ATOM     15  H   UNL     1       4.910   1.044  -1.318  0.00  0.00    +0.173 HD
ENDBRANCH   6   9
BRANCH   4  16
ATOM     16  O   UNL     1      -0.267   5.657  -1.197  0.00  0.00    -0.386 OA
ATOM     17  H   UNL     1      -0.091   6.359  -1.852  0.00  0.00    +0.210 HD
ENDBRANCH   4  16
BRANCH   5  18
ATOM     18  O   UNL     1       1.676   4.699  -2.624  0.00  0.00    -0.385 OA
ATOM     19  H   UNL     1       2.462   4.496  -2.064  0.00  0.00    +0.210 HD
ENDBRANCH   5  18
ENDBRANCH   1   3
BRANCH   1  21
ATOM     20  O   UNL     1      -3.230   3.195  -4.344  0.00  0.00    -0.274 OA
ATOM     21  N   UNL     1      -3.626   2.924  -2.120  0.00  0.00    -0.299 N 
ATOM     22  C   UNL     1      -3.934   3.414  -3.365  0.00  0.00    +0.231 C 
ATOM     23  H   UNL     1      -4.227   3.310  -1.387  0.00  0.00    +0.150 HD
BRANCH  22  24
ATOM     24  CA  UNL     1      -5.227   4.264  -3.460  0.00  0.00    +0.143 C 
BRANCH  24  25
ATOM     25  N   UNL     1      -6.191   3.757  -2.440  0.00  0.00    -0.320 NA
ATOM     26  H1  UNL     1      -6.032   4.245  -1.557  0.00  0.00    +0.119 HD
ATOM     27  H2  UNL     1      -7.132   4.034  -2.724  0.00  0.00    +0.119 HD
ENDBRANCH  24  25
BRANCH  24  28
ATOM     28  C   UNL     1      -4.949   5.779  -3.285  0.00  0.00    +0.046 C 
ATOM     29  C   UNL     1      -4.477   6.121  -1.855  0.00  0.00    +0.012 C 
BRANCH  28  30
ATOM     30  C   UNL     1      -6.121   6.703  -3.743  0.00  0.00    +0.168 C 
BRANCH  30  32
ATOM     31  N   UNL     1      -7.832   6.319  -2.009  0.00  0.00    -0.254 NA
ATOM     32  C   UNL     1      -7.064   7.229  -2.666  0.00  0.00    +0.070 A 
ATOM     33  C   UNL     1      -7.022   8.570  -2.278  0.00  0.00    +0.029 A 
ATOM     34  C   UNL     1      -7.820   9.009  -1.225  0.00  0.00    +0.049 A 
ATOM     35  C   UNL     1      -8.588   6.772  -0.978  0.00  0.00    +0.156 A 
ATOM     36  C   UNL     1      -8.606   8.092  -0.555  0.00  0.00    +0.135 A 
BRANCH  36  37
ATOM     37  O   UNL     1      -9.348   8.527   0.500  0.00  0.00    -0.505 OA
ATOM     38  H   UNL     1      -9.502   7.784   1.107  0.00  0.00    +0.292 HD
ENDBRANCH  36  37
ENDBRANCH  30  32
BRANCH  30  39
ATOM     39  O   UNL     1      -5.559   7.851  -4.408  0.00  0.00    -0.385 OA
ATOM     40  H   UNL     1      -6.016   8.622  -4.019  0.00  0.00    +0.210 HD
ENDBRANCH  30  39
ENDBRANCH  28  30
ENDBRANCH  24  28
ENDBRANCH  22  24
ENDBRANCH   1  21
BRANCH   1  42
ATOM     41  OXT UNL     1      -2.330   0.071  -1.151  0.00  0.00    -0.249 OA
ATOM     42  C   UNL     1      -2.490   1.235  -0.801  0.00  0.00    +0.328 C 
BRANCH  42  43
ATOM     43  O   UNL     1      -2.852   1.566   0.463  0.00  0.00    -0.479 OA
ATOM     44  H   UNL     1      -2.094   1.864   1.019  0.00  0.00    +0.295 HD
ENDBRANCH  42  43
ENDBRANCH   1  42
TORSDOF 14
ENDMDL
MODEL 3
REMARK VINA RESULT:    -9.021      5.567     10.783
REMARK INTER + INTRA:         -16.476
REMARK INTER:                 -14.623
REMARK INTRA:                  -1.853
REMARK UNBOUND:                -1.654
REMARK  Name = 456557
REMARK  15 active torsions:
REMARK  status: ('A' for Active; 'I' for Inactive)
REMARK    1  A    between atoms: O_2  and  C_17
REMARK    2  A    between atoms: O_3  and  C_18
REMARK    3  A    between atoms: O_4  and  C_22
REMARK    4  A    between atoms: O_7  and  C_27
REMARK    5  A    between atoms: O_10  and  C_35
REMARK    6  A    between atoms: N_11  and  C_19
REMARK    7  A    between atoms: N_12  and  CA_20
REMARK    8  A    between atoms: N_13  and  CA_21
REMARK    9  A    between atoms: C_16  and  CA_20
REMARK   10  A    between atoms: CA_20  and  C_22
REMARK   11  A    between atoms: CA_21  and  C_23
REMARK   12  A    between atoms: CA_21  and  C_24
REMARK   13  A    between atoms: C_23  and  C_27
REMARK   14  A    between atoms: C_23  and  C_28
REMARK   15  A    between atoms: C_27  and  C_30
REMARK                            x       y       z     vdW  Elec       q    Type
REMARK                         _______ _______ _______ _____ _____    ______ ____
ROOT
ATOM      1  CA  UNL     1      -1.034   3.139  -1.591  0.00  0.00    +0.213 C 
ENDROOT
BRANCH   1   3
ATOM      2  O   UNL     1      -2.060   1.202  -0.455  0.00  0.00    -0.345 OA
ATOM      3  C   UNL     1      -0.996   2.187  -0.367  0.00  0.00    +0.183 C 
ATOM      4  C   UNL     1       0.296   1.369  -0.230  0.00  0.00    +0.178 C 
ATOM      5  C   UNL     1      -0.019   0.079  -0.980  0.00  0.00    +0.195 C 
ATOM      6  C   UNL     1      -1.480  -0.111  -0.556  0.00  0.00    +0.255 C 
BRANCH   6   9
ATOM      7  O   UNL     1      -1.357  -2.900  -0.773  0.00  0.00    -0.246 OA
ATOM      8  O   UNL     1      -3.901  -2.993  -4.426  0.00  0.00    -0.268 OA
ATOM      9  N   UNL     1      -2.340  -0.909  -1.425  0.00  0.00    -0.271 N 
ATOM     10  N   UNL     1      -2.969  -2.961  -2.351  0.00  0.00    -0.275 N 
ATOM     11  C   UNL     1      -2.192  -2.289  -1.445  0.00  0.00    +0.331 A 
ATOM     12  C   UNL     1      -3.133  -0.259  -2.351  0.00  0.00    +0.098 A 
ATOM     13  C   UNL     1      -3.743  -0.915  -3.340  0.00  0.00    +0.088 A 
ATOM     14  C   UNL     1      -3.565  -2.371  -3.426  0.00  0.00    +0.254 A 
ATOM     15  H   UNL     1      -2.801  -3.950  -2.446  0.00  0.00    +0.173 HD
ENDBRANCH   6   9
BRANCH   4  16
ATOM     16  O   UNL     1       0.528   0.964   1.142  0.00  0.00    -0.386 OA
ATOM     17  H   UNL     1       0.478   1.756   1.711  0.00  0.00    +0.210 HD
ENDBRANCH   4  16
BRANCH   5  18
ATOM     18  O   UNL     1       0.835  -0.983  -0.543  0.00  0.00    -0.385 OA
ATOM     19  H   UNL     1       0.248  -1.583  -0.024  0.00  0.00    +0.210 HD
ENDBRANCH   5  18
ENDBRANCH   1   3
BRANCH   1  21
ATOM     20  O   UNL     1       0.624   4.677  -3.384  0.00  0.00    -0.274 OA
ATOM     21  N   UNL     1      -0.505   4.504  -1.415  0.00  0.00    -0.299 N 
ATOM     22  C   UNL     1       0.415   5.091  -2.250  0.00  0.00    +0.231 C 
ATOM     23  H   UNL     1      -0.460   4.872  -0.462  0.00  0.00    +0.150 HD
BRANCH  22  24
ATOM     24  CA  UNL     1       1.175   6.312  -1.671  0.00  0.00    +0.143 C 
BRANCH  24  25
ATOM     25  N   UNL     1       1.262   6.145  -0.191  0.00  0.00    -0.320 NA
ATOM     26  H1  UNL     1       0.401   5.716   0.150  0.00  0.00    +0.119 HD
ATOM     27  H2  UNL     1       1.992   5.460   0.011  0.00  0.00    +0.119 HD
ENDBRANCH  24  25
BRANCH  24  28
ATOM     28  C   UNL     1       2.575   6.490  -2.314  0.00  0.00    +0.046 C 
ATOM     29  C   UNL     1       3.542   5.352  -1.921  0.00  0.00    +0.012 C 
BRANCH  28  30
ATOM     30  C   UNL     1       3.212   7.896  -2.080  0.00  0.00    +0.168 C 
BRANCH  30  32
ATOM     31  N   UNL     1       3.344   8.271  -4.514  0.00  0.00    -0.254 NA
ATOM     32  C   UNL     1       3.302   8.835  -3.278  0.00  0.00    +0.070 A 
ATOM     33  C   UNL     1       3.194  10.218  -3.106  0.00  0.00    +0.029 A 
ATOM     34  C   UNL     1       3.178  11.052  -4.221  0.00  0.00    +0.049 A 
ATOM     35  C   UNL     1       3.311   9.107  -5.582  0.00  0.00    +0.156 A 
ATOM     36  C   UNL     1       3.224  10.486  -5.481  0.00  0.00    +0.135 A 
BRANCH  36  37
ATOM     37  O   UNL     1       3.164  11.312  -6.561  0.00  0.00    -0.505 OA
ATOM     38  H   UNL     1       3.426  12.207  -6.290  0.00  0.00    +0.292 HD
ENDBRANCH  36  37
ENDBRANCH  30  32
BRANCH  30  39
ATOM     39  O   UNL     1       2.447   8.577  -1.067  0.00  0.00    -0.385 OA
ATOM     40  H   UNL     1       1.823   7.908  -0.724  0.00  0.00    +0.210 HD
ENDBRANCH  30  39
ENDBRANCH  28  30
ENDBRANCH  24  28
ENDBRANCH  22  24
ENDBRANCH   1  21
BRANCH   1  42
ATOM     41  OXT UNL     1      -2.878   3.157  -3.200  0.00  0.00    -0.249 OA
ATOM     42  C   UNL     1      -2.498   3.272  -2.040  0.00  0.00    +0.328 C 
BRANCH  42  43
ATOM     43  O   UNL     1      -3.357   3.515  -1.019  0.00  0.00    -0.479 OA
ATOM     44  H   UNL     1      -4.282   3.234  -1.214  0.00  0.00    +0.295 HD
ENDBRANCH  42  43
ENDBRANCH   1  42
TORSDOF 14
ENDMDL
MODEL 4
REMARK VINA RESULT:    -8.933      4.796      7.514
REMARK INTER + INTRA:         -16.332
REMARK INTER:                 -14.118
REMARK INTRA:                  -2.214
REMARK UNBOUND:                -1.654
REMARK  Name = 456557
REMARK  15 active torsions:
REMARK  status: ('A' for Active; 'I' for Inactive)
REMARK    1  A    between atoms: O_2  and  C_17
REMARK    2  A    between atoms: O_3  and  C_18
REMARK    3  A    between atoms: O_4  and  C_22
REMARK    4  A    between atoms: O_7  and  C_27
REMARK    5  A    between atoms: O_10  and  C_35
REMARK    6  A    between atoms: N_11  and  C_19
REMARK    7  A    between atoms: N_12  and  CA_20
REMARK    8  A    between atoms: N_13  and  CA_21
REMARK    9  A    between atoms: C_16  and  CA_20
REMARK   10  A    between atoms: CA_20  and  C_22
REMARK   11  A    between atoms: CA_21  and  C_23
REMARK   12  A    between atoms: CA_21  and  C_24
REMARK   13  A    between atoms: C_23  and  C_27
REMARK   14  A    between atoms: C_23  and  C_28
REMARK   15  A    between atoms: C_27  and  C_30
REMARK                            x       y       z     vdW  Elec       q    Type
REMARK                         _______ _______ _______ _____ _____    ______ ____
ROOT
ATOM      1  CA  UNL     1      -1.728   2.918  -1.169  0.00  0.00    +0.213 C 
ENDROOT
BRANCH   1   3
ATOM      2  O   UNL     1      -3.669   2.897  -2.694  0.00  0.00    -0.345 OA
ATOM      3  C   UNL     1      -2.326   2.380  -2.495  0.00  0.00    +0.183 C 
ATOM      4  C   UNL     1      -1.552   2.782  -3.758  0.00  0.00    +0.178 C 
ATOM      5  C   UNL     1      -2.235   4.072  -4.199  0.00  0.00    +0.195 C 
ATOM      6  C   UNL     1      -3.691   3.711  -3.881  0.00  0.00    +0.255 C 
BRANCH   6   9
ATOM      7  O   UNL     1      -5.075   5.063  -5.904  0.00  0.00    -0.246 OA
ATOM      8  O   UNL     1      -6.358   8.355  -3.194  0.00  0.00    -0.268 OA
ATOM      9  N   UNL     1      -4.628   4.807  -3.649  0.00  0.00    -0.271 N 
ATOM     10  N   UNL     1      -6.054   6.478  -4.444  0.00  0.00    -0.275 N 
ATOM     11  C   UNL     1      -5.262   5.398  -4.732  0.00  0.00    +0.331 A 
ATOM     12  C   UNL     1      -4.701   5.358  -2.385  0.00  0.00    +0.098 A 
ATOM     13  C   UNL     1      -5.332   6.513  -2.156  0.00  0.00    +0.088 A 
ATOM     14  C   UNL     1      -5.969   7.196  -3.289  0.00  0.00    +0.254 A 
ATOM     15  H   UNL     1      -6.441   6.978  -5.230  0.00  0.00    +0.173 HD
ENDBRANCH   6   9
BRANCH   4  16
ATOM     16  O   UNL     1      -1.776   1.845  -4.842  0.00  0.00    -0.386 OA
ATOM     17  H   UNL     1      -1.245   2.128  -5.610  0.00  0.00    +0.210 HD
ENDBRANCH   4  16
BRANCH   5  18
ATOM     18  O   UNL     1      -2.010   4.317  -5.591  0.00  0.00    -0.385 OA
ATOM     19  H   UNL     1      -2.584   5.089  -5.809  0.00  0.00    +0.210 HD
ENDBRANCH   5  18
ENDBRANCH   1   3
BRANCH   1  21
ATOM     20  O   UNL     1      -0.953   5.657  -0.695  0.00  0.00    -0.274 OA
ATOM     21  N   UNL     1      -0.382   3.517  -1.217  0.00  0.00    -0.299 N 
ATOM     22  C   UNL     1      -0.132   4.865  -1.141  0.00  0.00    +0.231 C 
ATOM     23  H   UNL     1       0.339   3.013  -1.740  0.00  0.00    +0.150 HD
BRANCH  22  24
ATOM     24  CA  UNL     1       1.256   5.327  -1.654  0.00  0.00    +0.143 C 
BRANCH  24  25
ATOM     25  N   UNL     1       1.057   6.061  -2.938  0.00  0.00    -0.320 NA
ATOM     26  H1  UNL     1       1.854   5.887  -3.551  0.00  0.00    +0.119 HD
ATOM     27  H2  UNL     1       0.260   5.646  -3.423  0.00  0.00    +0.119 HD
ENDBRANCH  24  25
BRANCH  24  28
ATOM     28  C   UNL     1       2.011   6.191  -0.610  0.00  0.00    +0.046 C 
ATOM     29  C   UNL     1       2.773   7.362  -1.268  0.00  0.00    +0.012 C 
BRANCH  28  30
ATOM     30  C   UNL     1       2.928   5.375   0.355  0.00  0.00    +0.168 C 
BRANCH  30  32
ATOM     31  N   UNL     1       2.539   2.940   0.308  0.00  0.00    -0.254 NA
ATOM     32  C   UNL     1       3.334   3.971  -0.081  0.00  0.00    +0.070 A 
ATOM     33  C   UNL     1       4.398   3.783  -0.967  0.00  0.00    +0.029 A 
ATOM     34  C   UNL     1       4.691   2.504  -1.431  0.00  0.00    +0.049 A 
ATOM     35  C   UNL     1       2.838   1.707  -0.172  0.00  0.00    +0.156 A 
ATOM     36  C   UNL     1       3.889   1.450  -1.037  0.00  0.00    +0.135 A 
BRANCH  36  37
ATOM     37  O   UNL     1       4.162   0.212  -1.534  0.00  0.00    -0.505 OA
ATOM     38  H   UNL     1       4.977  -0.122  -1.122  0.00  0.00    +0.292 HD
ENDBRANCH  36  37
ENDBRANCH  30  32
BRANCH  30  39
ATOM     39  O   UNL     1       4.142   6.120   0.562  0.00  0.00    -0.385 OA
ATOM     40  H   UNL     1       4.276   6.130   1.530  0.00  0.00    +0.210 HD
ENDBRANCH  30  39
ENDBRANCH  28  30
ENDBRANCH  24  28
ENDBRANCH  22  24
ENDBRANCH   1  21
BRANCH   1  42
ATOM     41  OXT UNL     1      -0.669   1.088   0.064  0.00  0.00    -0.249 OA
ATOM     42  C   UNL     1      -1.674   1.751  -0.169  0.00  0.00    +0.328 C 
BRANCH  42  43
ATOM     43  O   UNL     1      -2.853   1.523   0.460  0.00  0.00    -0.479 OA
ATOM     44  H   UNL     1      -3.623   1.937   0.004  0.00  0.00    +0.295 HD
ENDBRANCH  42  43
ENDBRANCH   1  42
TORSDOF 14
ENDMDL
MODEL 5
REMARK VINA RESULT:    -8.921      4.328      9.672
REMARK INTER + INTRA:         -16.312
REMARK INTER:                 -14.635
REMARK INTRA:                  -1.677
REMARK UNBOUND:                -1.654
REMARK  Name = 456557
REMARK  15 active torsions:
REMARK  status: ('A' for Active; 'I' for Inactive)
REMARK    1  A    between atoms: O_2  and  C_17
REMARK    2  A    between atoms: O_3  and  C_18
REMARK    3  A    between atoms: O_4  and  C_22
REMARK    4  A    between atoms: O_7  and  C_27
REMARK    5  A    between atoms: O_10  and  C_35
REMARK    6  A    between atoms: N_11  and  C_19
REMARK    7  A    between atoms: N_12  and  CA_20
REMARK    8  A    between atoms: N_13  and  CA_21
REMARK    9  A    between atoms: C_16  and  CA_20
REMARK   10  A    between atoms: CA_20  and  C_22
REMARK   11  A    between atoms: CA_21  and  C_23
REMARK   12  A    between atoms: CA_21  and  C_24
REMARK   13  A    between atoms: C_23  and  C_27
REMARK   14  A    between atoms: C_23  and  C_28
REMARK   15  A    between atoms: C_27  and  C_30
REMARK                            x       y       z     vdW  Elec       q    Type
REMARK                         _______ _______ _______ _____ _____    ______ ____
ROOT
ATOM      1  CA  UNL     1      -1.039   4.146  -2.570  0.00  0.00    +0.213 C 
ENDROOT
BRANCH   1   3
ATOM      2  O   UNL     1       0.605   4.009  -0.734  0.00  0.00    -0.345 OA
ATOM      3  C   UNL     1      -0.062   4.920  -1.647  0.00  0.00    +0.183 C 
ATOM      4  C   UNL     1       1.071   5.652  -2.381  0.00  0.00    +0.178 C 
ATOM      5  C   UNL     1       2.202   4.630  -2.397  0.00  0.00    +0.195 C 
ATOM      6  C   UNL     1       2.020   4.026  -1.000  0.00  0.00    +0.255 C 
BRANCH   6   9
ATOM      7  O   UNL     1       4.726   3.317  -1.113  0.00  0.00    -0.246 OA
ATOM      8  O   UNL     1       3.855  -1.049  -1.160  0.00  0.00    -0.268 OA
ATOM      9  N   UNL     1       2.529   2.676  -0.772  0.00  0.00    -0.271 N 
ATOM     10  N   UNL     1       4.289   1.139  -0.715  0.00  0.00    -0.275 N 
ATOM     11  C   UNL     1       3.895   2.445  -0.848  0.00  0.00    +0.331 A 
ATOM     12  C   UNL     1       1.627   1.633  -0.691  0.00  0.00    +0.098 A 
ATOM     13  C   UNL     1       2.019   0.358  -0.742  0.00  0.00    +0.088 A 
ATOM     14  C   UNL     1       3.454   0.074  -0.878  0.00  0.00    +0.254 A 
ATOM     15  H   UNL     1       5.266   0.944  -0.867  0.00  0.00    +0.173 HD
ENDBRANCH   6   9
BRANCH   4  16
ATOM     16  O   UNL     1       1.577   6.767  -1.603  0.00  0.00    -0.386 OA
ATOM     17  H   UNL     1       2.434   7.042  -1.980  0.00  0.00    +0.210 HD
ENDBRANCH   4  16
BRANCH   5  18
ATOM     18  O   UNL     1       3.468   5.276  -2.568  0.00  0.00    -0.385 OA
ATOM     19  H   UNL     1       3.729   5.566  -1.662  0.00  0.00    +0.210 HD
ENDBRANCH   5  18
ENDBRANCH   1   3
BRANCH   1  21
ATOM     20  O   UNL     1      -2.336   4.063  -5.147  0.00  0.00    -0.274 OA
ATOM     21  N   UNL     1      -2.263   4.840  -3.009  0.00  0.00    -0.299 N 
ATOM     22  C   UNL     1      -2.713   4.871  -4.306  0.00  0.00    +0.231 C 
ATOM     23  H   UNL     1      -2.558   5.659  -2.472  0.00  0.00    +0.150 HD
BRANCH  22  24
ATOM     24  CA  UNL     1      -3.728   5.992  -4.646  0.00  0.00    +0.143 C 
BRANCH  24  25
ATOM     25  N   UNL     1      -3.804   6.115  -6.131  0.00  0.00    -0.320 NA
ATOM     26  H1  UNL     1      -3.855   7.103  -6.383  0.00  0.00    +0.119 HD
ATOM     27  H2  UNL     1      -2.919   5.792  -6.524  0.00  0.00    +0.119 HD
ENDBRANCH  24  25
BRANCH  24  28
ATOM     28  C   UNL     1      -5.122   5.732  -4.019  0.00  0.00    +0.046 C 
ATOM     29  C   UNL     1      -5.675   4.339  -4.393  0.00  0.00    +0.012 C 
BRANCH  28  30
ATOM     30  C   UNL     1      -6.168   6.860  -4.289  0.00  0.00    +0.168 C 
BRANCH  30  32
ATOM     31  N   UNL     1      -7.810   6.314  -2.533  0.00  0.00    -0.254 NA
ATOM     32  C   UNL     1      -7.064   7.281  -3.130  0.00  0.00    +0.070 A 
ATOM     33  C   UNL     1      -7.000   8.579  -2.618  0.00  0.00    +0.029 A 
ATOM     34  C   UNL     1      -7.753   8.915  -1.496  0.00  0.00    +0.049 A 
ATOM     35  C   UNL     1      -8.521   6.666  -1.433  0.00  0.00    +0.156 A 
ATOM     36  C   UNL     1      -8.517   7.939  -0.886  0.00  0.00    +0.135 A 
BRANCH  36  37
ATOM     37  O   UNL     1      -9.214   8.273   0.235  0.00  0.00    -0.505 OA
ATOM     38  H   UNL     1      -9.915   7.616   0.379  0.00  0.00    +0.292 HD
ENDBRANCH  36  37
ENDBRANCH  30  32
BRANCH  30  39
ATOM     39  O   UNL     1      -5.460   8.037  -4.724  0.00  0.00    -0.385 OA
ATOM     40  H   UNL     1      -6.124   8.578  -5.194  0.00  0.00    +0.210 HD
ENDBRANCH  30  39
ENDBRANCH  28  30
ENDBRANCH  24  28
ENDBRANCH  22  24
ENDBRANCH   1  21
BRANCH   1  42
ATOM     41  OXT UNL     1      -1.408   1.741  -2.304  0.00  0.00    -0.249 OA
ATOM     42  C   UNL     1      -1.476   2.871  -1.831  0.00  0.00    +0.328 C 
BRANCH  42  43
ATOM     43  O   UNL     1      -1.938   3.103  -0.578  0.00  0.00    -0.479 OA
ATOM     44  H   UNL     1      -2.687   2.515  -0.325  0.00  0.00    +0.295 HD
ENDBRANCH  42  43
ENDBRANCH   1  42
TORSDOF 14
ENDMDL
MODEL 6
REMARK VINA RESULT:    -8.873      4.674      7.589
REMARK INTER + INTRA:         -16.233
REMARK INTER:                 -13.828
REMARK INTRA:                  -2.405
REMARK UNBOUND:                -1.654
REMARK  Name = 456557
REMARK  15 active torsions:
REMARK  status: ('A' for Active; 'I' for Inactive)
REMARK    1  A    between atoms: O_2  and  C_17
REMARK    2  A    between atoms: O_3  and  C_18
REMARK    3  A    between atoms: O_4  and  C_22
REMARK    4  A    between atoms: O_7  and  C_27
REMARK    5  A    between atoms: O_10  and  C_35
REMARK    6  A    between atoms: N_11  and  C_19
REMARK    7  A    between atoms: N_12  and  CA_20
REMARK    8  A    between atoms: N_13  and  CA_21
REMARK    9  A    between atoms: C_16  and  CA_20
REMARK   10  A    between atoms: CA_20  and  C_22
REMARK   11  A    between atoms: CA_21  and  C_23
REMARK   12  A    between atoms: CA_21  and  C_24
REMARK   13  A    between atoms: C_23  and  C_27
REMARK   14  A    between atoms: C_23  and  C_28
REMARK   15  A    between atoms: C_27  and  C_30
REMARK                            x       y       z     vdW  Elec       q    Type
REMARK                         _______ _______ _______ _____ _____    ______ ____
ROOT
ATOM      1  CA  UNL     1      -0.066   4.545  -2.275  0.00  0.00    +0.213 C 
ENDROOT
BRANCH   1   3
ATOM      2  O   UNL     1      -2.084   3.199  -2.732  0.00  0.00    -0.345 OA
ATOM      3  C   UNL     1      -0.732   3.480  -3.184  0.00  0.00    +0.183 C 
ATOM      4  C   UNL     1      -0.880   3.895  -4.655  0.00  0.00    +0.178 C 
ATOM      5  C   UNL     1      -2.266   4.527  -4.709  0.00  0.00    +0.195 C 
ATOM      6  C   UNL     1      -3.015   3.582  -3.762  0.00  0.00    +0.255 C 
BRANCH   6   9
ATOM      7  O   UNL     1      -5.375   2.113  -3.434  0.00  0.00    -0.246 OA
ATOM      8  O   UNL     1      -7.754   5.693  -2.269  0.00  0.00    -0.268 OA
ATOM      9  N   UNL     1      -4.216   4.089  -3.106  0.00  0.00    -0.271 N 
ATOM     10  N   UNL     1      -6.446   3.840  -2.452  0.00  0.00    -0.275 N 
ATOM     11  C   UNL     1      -5.328   3.265  -2.995  0.00  0.00    +0.331 A 
ATOM     12  C   UNL     1      -4.286   5.433  -2.798  0.00  0.00    +0.098 A 
ATOM     13  C   UNL     1      -5.433   6.016  -2.439  0.00  0.00    +0.088 A 
ATOM     14  C   UNL     1      -6.642   5.186  -2.364  0.00  0.00    +0.254 A 
ATOM     15  H   UNL     1      -7.288   3.285  -2.457  0.00  0.00    +0.173 HD
ENDBRANCH   6   9
BRANCH   4  16
ATOM     16  O   UNL     1      -0.955   2.740  -5.529  0.00  0.00    -0.386 OA
ATOM     17  H   UNL     1      -0.425   2.923  -6.328  0.00  0.00    +0.210 HD
ENDBRANCH   4  16
BRANCH   5  18
ATOM     18  O   UNL     1      -2.782   4.507  -6.044  0.00  0.00    -0.385 OA
ATOM     19  H   UNL     1      -3.611   5.040  -6.003  0.00  0.00    +0.210 HD
ENDBRANCH   5  18
ENDBRANCH   1   3
BRANCH   1  21
ATOM     20  O   UNL     1       2.451   5.885  -2.721  0.00  0.00    -0.274 OA
ATOM     21  N   UNL     1       1.258   4.233  -1.708  0.00  0.00    -0.299 N 
ATOM     22  C   UNL     1       2.431   4.824  -2.109  0.00  0.00    +0.231 C 
ATOM     23  H   UNL     1       1.401   3.290  -1.339  0.00  0.00    +0.150 HD
BRANCH  22  24
ATOM     24  CA  UNL     1       3.733   4.067  -1.740  0.00  0.00    +0.143 C 
BRANCH  24  25
ATOM     25  N   UNL     1       4.870   5.029  -1.830  0.00  0.00    -0.320 NA
ATOM     26  H1  UNL     1       5.069   5.402  -0.901  0.00  0.00    +0.119 HD
ATOM     27  H2  UNL     1       5.710   4.508  -2.086  0.00  0.00    +0.119 HD
ENDBRANCH  24  25
BRANCH  24  28
ATOM     28  C   UNL     1       3.651   3.404  -0.341  0.00  0.00    +0.046 C 
ATOM     29  C   UNL     1       4.526   4.136   0.700  0.00  0.00    +0.012 C 
BRANCH  28  30
ATOM     30  C   UNL     1       3.923   1.866  -0.344  0.00  0.00    +0.168 C 
BRANCH  30  32
ATOM     31  N   UNL     1       1.484   1.500  -0.388  0.00  0.00    -0.254 NA
ATOM     32  C   UNL     1       2.719   0.940  -0.481  0.00  0.00    +0.070 A 
ATOM     33  C   UNL     1       2.891  -0.401  -0.835  0.00  0.00    +0.029 A 
ATOM     34  C   UNL     1       1.776  -1.205  -1.051  0.00  0.00    +0.049 A 
ATOM     35  C   UNL     1       0.416   0.697  -0.619  0.00  0.00    +0.156 A 
ATOM     36  C   UNL     1       0.517  -0.644  -0.955  0.00  0.00    +0.135 A 
BRANCH  36  37
ATOM     37  O   UNL     1      -0.562  -1.433  -1.212  0.00  0.00    -0.505 OA
ATOM     38  H   UNL     1      -1.302  -1.149  -0.650  0.00  0.00    +0.292 HD
ENDBRANCH  36  37
ENDBRANCH  30  32
BRANCH  30  39
ATOM     39  O   UNL     1       4.811   1.566  -1.438  0.00  0.00    -0.385 OA
ATOM     40  H   UNL     1       5.682   1.406  -1.025  0.00  0.00    +0.210 HD
ENDBRANCH  30  39
ENDBRANCH  28  30
ENDBRANCH  24  28
ENDBRANCH  22  24
ENDBRANCH   1  21
BRANCH   1  42
ATOM     41  OXT UNL     1      -1.731   5.810  -1.001  0.00  0.00    -0.249 OA
ATOM     42  C   UNL     1      -1.014   4.819  -1.096  0.00  0.00    +0.328 C 
BRANCH  42  43
ATOM     43  O   UNL     1      -1.004   3.842  -0.156  0.00  0.00    -0.479 OA
ATOM     44  H   UNL     1      -1.124   2.939  -0.532  0.00  0.00    +0.295 HD
ENDBRANCH  42  43
ENDBRANCH   1  42
TORSDOF 14
ENDMDL
MODEL 7
REMARK VINA RESULT:    -8.860      4.135      7.116
REMARK INTER + INTRA:         -16.212
REMARK INTER:                 -14.283
REMARK INTRA:                  -1.929
REMARK UNBOUND:                -1.654
REMARK  Name = 456557
REMARK  15 active torsions:
REMARK  status: ('A' for Active; 'I' for Inactive)
REMARK    1  A    between atoms: O_2  and  C_17
REMARK    2  A    between atoms: O_3  and  C_18
REMARK    3  A    between atoms: O_4  and  C_22
REMARK    4  A    between atoms: O_7  and  C_27
REMARK    5  A    between atoms: O_10  and  C_35
REMARK    6  A    between atoms: N_11  and  C_19
REMARK    7  A    between atoms: N_12  and  CA_20
REMARK    8  A    between atoms: N_13  and  CA_21
REMARK    9  A    between atoms: C_16  and  CA_20
REMARK   10  A    between atoms: CA_20  and  C_22
REMARK   11  A    between atoms: CA_21  and  C_23
REMARK   12  A    between atoms: CA_21  and  C_24
REMARK   13  A    between atoms: C_23  and  C_27
REMARK   14  A    between atoms: C_23  and  C_28
REMARK   15  A    between atoms: C_27  and  C_30
REMARK                            x       y       z     vdW  Elec       q    Type
REMARK                         _______ _______ _______ _____ _____    ______ ____
ROOT
ATOM      1  CA  UNL     1      -1.647   2.476  -1.446  0.00  0.00    +0.213 C 
ENDROOT
BRANCH   1   3
ATOM      2  O   UNL     1      -3.662   2.482  -2.870  0.00  0.00    -0.345 OA
ATOM      3  C   UNL     1      -2.210   2.522  -2.890  0.00  0.00    +0.183 C 
ATOM      4  C   UNL     1      -1.855   3.791  -3.677  0.00  0.00    +0.178 C 
ATOM      5  C   UNL     1      -3.029   4.724  -3.396  0.00  0.00    +0.195 C 
ATOM      6  C   UNL     1      -4.175   3.707  -3.427  0.00  0.00    +0.255 C 
BRANCH   6   9
ATOM      7  O   UNL     1      -6.742   2.912  -4.213  0.00  0.00    -0.246 OA
ATOM      8  O   UNL     1      -8.761   5.717  -1.405  0.00  0.00    -0.268 OA
ATOM      9  N   UNL     1      -5.400   4.042  -2.705  0.00  0.00    -0.271 N 
ATOM     10  N   UNL     1      -7.729   4.017  -2.511  0.00  0.00    -0.275 N 
ATOM     11  C   UNL     1      -6.618   3.586  -3.188  0.00  0.00    +0.331 A 
ATOM     12  C   UNL     1      -5.334   4.971  -1.685  0.00  0.00    +0.098 A 
ATOM     13  C   UNL     1      -6.433   5.515  -1.156  0.00  0.00    +0.088 A 
ATOM     14  C   UNL     1      -7.740   5.097  -1.679  0.00  0.00    +0.254 A 
ATOM     15  H   UNL     1      -8.623   3.775  -2.909  0.00  0.00    +0.173 HD
ENDBRANCH   6   9
BRANCH   4  16
ATOM     16  O   UNL     1      -1.889   3.558  -5.108  0.00  0.00    -0.386 OA
ATOM     17  H   UNL     1      -2.589   4.118  -5.495  0.00  0.00    +0.210 HD
ENDBRANCH   4  16
BRANCH   5  18
ATOM     18  O   UNL     1      -3.138   5.724  -4.415  0.00  0.00    -0.385 OA
ATOM     19  H   UNL     1      -4.057   6.073  -4.330  0.00  0.00    +0.210 HD
ENDBRANCH   5  18
ENDBRANCH   1   3
BRANCH   1  21
ATOM     20  O   UNL     1       0.290   4.465  -0.657  0.00  0.00    -0.274 OA
ATOM     21  N   UNL     1      -0.189   2.330  -1.282  0.00  0.00    -0.299 N 
ATOM     22  C   UNL     1       0.674   3.376  -1.065  0.00  0.00    +0.231 C 
ATOM     23  H   UNL     1       0.261   1.542  -1.755  0.00  0.00    +0.150 HD
BRANCH  22  24
ATOM     24  CA  UNL     1       2.169   3.096  -1.368  0.00  0.00    +0.143 C 
BRANCH  24  25
ATOM     25  N   UNL     1       2.767   4.338  -1.940  0.00  0.00    -0.320 NA
ATOM     26  H1  UNL     1       3.141   4.134  -2.868  0.00  0.00    +0.119 HD
ATOM     27  H2  UNL     1       2.015   5.009  -2.104  0.00  0.00    +0.119 HD
ENDBRANCH  24  25
BRANCH  24  28
ATOM     28  C   UNL     1       2.942   2.610  -0.115  0.00  0.00    +0.046 C 
ATOM     29  C   UNL     1       3.801   3.733   0.508  0.00  0.00    +0.012 C 
BRANCH  28  30
ATOM     30  C   UNL     1       3.770   1.306  -0.338  0.00  0.00    +0.168 C 
BRANCH  30  32
ATOM     31  N   UNL     1       1.710  -0.043  -0.206  0.00  0.00    -0.254 NA
ATOM     32  C   UNL     1       2.998   0.025  -0.634  0.00  0.00    +0.070 A 
ATOM     33  C   UNL     1       3.555  -0.969  -1.443  0.00  0.00    +0.029 A 
ATOM     34  C   UNL     1       2.797  -2.086  -1.784  0.00  0.00    +0.049 A 
ATOM     35  C   UNL     1       0.990  -1.135  -0.566  0.00  0.00    +0.156 A 
ATOM     36  C   UNL     1       1.488  -2.164  -1.349  0.00  0.00    +0.135 A 
BRANCH  36  37
ATOM     37  O   UNL     1       0.746  -3.241  -1.726  0.00  0.00    -0.505 OA
ATOM     38  H   UNL     1       1.252  -4.052  -1.549  0.00  0.00    +0.292 HD
ENDBRANCH  36  37
ENDBRANCH  30  32
BRANCH  30  39
ATOM     39  O   UNL     1       4.666   1.524  -1.444  0.00  0.00    -0.385 OA
ATOM     40  H   UNL     1       4.122   1.946  -2.137  0.00  0.00    +0.210 HD
ENDBRANCH  30  39
ENDBRANCH  28  30
ENDBRANCH  24  28
ENDBRANCH  22  24
ENDBRANCH   1  21
BRANCH   1  42
ATOM     41  OXT UNL     1      -2.338   0.147  -1.149  0.00  0.00    -0.249 OA
ATOM     42  C   UNL     1      -2.309   1.295  -0.718  0.00  0.00    +0.328 C 
BRANCH  42  43
ATOM     43  O   UNL     1      -2.856   1.633   0.475  0.00  0.00    -0.479 OA
ATOM     44  H   UNL     1      -2.859   0.891   1.126  0.00  0.00    +0.295 HD
ENDBRANCH  42  43
ENDBRANCH   1  42
TORSDOF 14
ENDMDL
MODEL 8
REMARK VINA RESULT:    -8.764      2.431      8.180
REMARK INTER + INTRA:         -16.054
REMARK INTER:                 -14.291
REMARK INTRA:                  -1.763
REMARK UNBOUND:                -1.654
REMARK  Name = 456557
REMARK  15 active torsions:
REMARK  status: ('A' for Active; 'I' for Inactive)
REMARK    1  A    between atoms: O_2  and  C_17
REMARK    2  A    between atoms: O_3  and  C_18
REMARK    3  A    between atoms: O_4  and  C_22
REMARK    4  A    between atoms: O_7  and  C_27
REMARK    5  A    between atoms: O_10  and  C_35
REMARK    6  A    between atoms: N_11  and  C_19
REMARK    7  A    between atoms: N_12  and  CA_20
REMARK    8  A    between atoms: N_13  and  CA_21
REMARK    9  A    between atoms: C_16  and  CA_20
REMARK   10  A    between atoms: CA_20  and  C_22
REMARK   11  A    between atoms: CA_21  and  C_23
REMARK   12  A    between atoms: CA_21  and  C_24
REMARK   13  A    between atoms: C_23  and  C_27
REMARK   14  A    between atoms: C_23  and  C_28
REMARK   15  A    between atoms: C_27  and  C_30
REMARK                            x       y       z     vdW  Elec       q    Type
REMARK                         _______ _______ _______ _____ _____    ______ ____
ROOT
ATOM      1  CA  UNL     1      -7.309   1.796  -5.496  0.00  0.00    +0.213 C 
ENDROOT
BRANCH   1   3
ATOM      2  O   UNL     1      -5.130   0.641  -5.393  0.00  0.00    -0.345 OA
ATOM      3  C   UNL     1      -6.568   0.436  -5.419  0.00  0.00    +0.183 C 
ATOM      4  C   UNL     1      -6.877  -0.393  -4.165  0.00  0.00    +0.178 C 
ATOM      5  C   UNL     1      -5.793   0.033  -3.180  0.00  0.00    +0.195 C 
ATOM      6  C   UNL     1      -4.606   0.152  -4.144  0.00  0.00    +0.255 C 
BRANCH   6   9
ATOM      7  O   UNL     1      -2.561  -0.581  -2.378  0.00  0.00    -0.246 OA
ATOM      8  O   UNL     1      -1.099   3.600  -1.918  0.00  0.00    -0.268 OA
ATOM      9  N   UNL     1      -3.501   1.023  -3.756  0.00  0.00    -0.271 N 
ATOM     10  N   UNL     1      -1.586   1.452  -2.487  0.00  0.00    -0.275 N 
ATOM     11  C   UNL     1      -2.539   0.548  -2.876  0.00  0.00    +0.331 A 
ATOM     12  C   UNL     1      -3.553   2.357  -4.111  0.00  0.00    +0.098 A 
ATOM     13  C   UNL     1      -2.724   3.259  -3.582  0.00  0.00    +0.088 A 
ATOM     14  C   UNL     1      -1.727   2.802  -2.605  0.00  0.00    +0.254 A 
ATOM     15  H   UNL     1      -0.941   1.150  -1.773  0.00  0.00    +0.173 HD
ENDBRANCH   6   9
BRANCH   4  16
ATOM     16  O   UNL     1      -6.650  -1.807  -4.391  0.00  0.00    -0.386 OA
ATOM     17  H   UNL     1      -6.834  -2.286  -3.561  0.00  0.00    +0.210 HD
ENDBRANCH   4  16
BRANCH   5  18
ATOM     18  O   UNL     1      -5.600  -0.966  -2.174  0.00  0.00    -0.385 OA
ATOM     19  H   UNL     1      -4.634  -1.165  -2.196  0.00  0.00    +0.210 HD
ENDBRANCH   5  18
ENDBRANCH   1   3
BRANCH   1  21
ATOM     20  O   UNL     1      -7.688   4.602  -6.057  0.00  0.00    -0.274 OA
ATOM     21  N   UNL     1      -6.676   2.960  -4.849  0.00  0.00    -0.299 N 
ATOM     22  C   UNL     1      -6.793   4.253  -5.296  0.00  0.00    +0.231 C 
ATOM     23  H   UNL     1      -5.803   2.799  -4.340  0.00  0.00    +0.150 HD
BRANCH  22  24
ATOM     24  CA  UNL     1      -5.723   5.249  -4.781  0.00  0.00    +0.143 C 
BRANCH  24  25
ATOM     25  N   UNL     1      -4.693   5.418  -5.847  0.00  0.00    -0.320 NA
ATOM     26  H1  UNL     1      -3.772   5.493  -5.415  0.00  0.00    +0.119 HD
ATOM     27  H2  UNL     1      -4.655   4.556  -6.393  0.00  0.00    +0.119 HD
ENDBRANCH  24  25
BRANCH  24  28
ATOM     28  C   UNL     1      -6.340   6.608  -4.358  0.00  0.00    +0.046 C 
ATOM     29  C   UNL     1      -6.176   7.685  -5.452  0.00  0.00    +0.012 C 
BRANCH  28  30
ATOM     30  C   UNL     1      -5.861   7.123  -2.964  0.00  0.00    +0.168 C 
BRANCH  30  32
ATOM     31  N   UNL     1      -7.579   6.657  -1.257  0.00  0.00    -0.254 NA
ATOM     32  C   UNL     1      -6.929   7.602  -1.986  0.00  0.00    +0.070 A 
ATOM     33  C   UNL     1      -7.116   8.966  -1.752  0.00  0.00    +0.029 A 
ATOM     34  C   UNL     1      -8.026   9.381  -0.783  0.00  0.00    +0.049 A 
ATOM     35  C   UNL     1      -8.448   7.089  -0.309  0.00  0.00    +0.156 A 
ATOM     36  C   UNL     1      -8.694   8.426  -0.040  0.00  0.00    +0.135 A 
BRANCH  36  37
ATOM     37  O   UNL     1      -9.548   8.847   0.933  0.00  0.00    -0.505 OA
ATOM     38  H   UNL     1     -10.267   8.201   1.024  0.00  0.00    +0.292 HD
ENDBRANCH  36  37
ENDBRANCH  30  32
BRANCH  30  39
ATOM     39  O   UNL     1      -5.140   6.060  -2.313  0.00  0.00    -0.385 OA
ATOM     40  H   UNL     1      -4.230   6.398  -2.199  0.00  0.00    +0.210 HD
ENDBRANCH  30  39
ENDBRANCH  28  30
ENDBRANCH  24  28
ENDBRANCH  22  24
ENDBRANCH   1  21
BRANCH   1  42
ATOM     41  OXT UNL     1      -9.657   1.108  -5.423  0.00  0.00    -0.249 OA
ATOM     42  C   UNL     1      -8.695   1.615  -4.856  0.00  0.00    +0.328 C 
BRANCH  42  43
ATOM     43  O   UNL     1      -8.762   2.059  -3.576  0.00  0.00    -0.479 OA
ATOM     44  H   UNL     1      -7.876   2.169  -3.156  0.00  0.00    +0.295 HD
ENDBRANCH  42  43
ENDBRANCH   1  42
TORSDOF 14
ENDMDL
MODEL 9
REMARK VINA RESULT:    -8.666      4.830      8.487
REMARK INTER + INTRA:         -15.893
REMARK INTER:                 -14.251
REMARK INTRA:                  -1.642
REMARK UNBOUND:                -1.654
REMARK  Name = 456557
REMARK  15 active torsions:
REMARK  status: ('A' for Active; 'I' for Inactive)
REMARK    1  A    between atoms: O_2  and  C_17
REMARK    2  A    between atoms: O_3  and  C_18
REMARK    3  A    between atoms: O_4  and  C_22
REMARK    4  A    between atoms: O_7  and  C_27
REMARK    5  A    between atoms: O_10  and  C_35
REMARK    6  A    between atoms: N_11  and  C_19
REMARK    7  A    between atoms: N_12  and  CA_20
REMARK    8  A    between atoms: N_13  and  CA_21
REMARK    9  A    between atoms: C_16  and  CA_20
REMARK   10  A    between atoms: CA_20  and  C_22
REMARK   11  A    between atoms: CA_21  and  C_23
REMARK   12  A    between atoms: CA_21  and  C_24
REMARK   13  A    between atoms: C_23  and  C_27
REMARK   14  A    between atoms: C_23  and  C_28
REMARK   15  A    between atoms: C_27  and  C_30
REMARK                            x       y       z     vdW  Elec       q    Type
REMARK                         _______ _______ _______ _____ _____    ______ ____
ROOT
ATOM      1  CA  UNL     1      -2.072   0.943  -2.373  0.00  0.00    +0.213 C 
ENDROOT
BRANCH   1   3
ATOM      2  O   UNL     1      -4.340   0.152  -1.804  0.00  0.00    -0.345 OA
ATOM      3  C   UNL     1      -2.943  -0.239  -1.874  0.00  0.00    +0.183 C 
ATOM      4  C   UNL     1      -2.920  -1.479  -2.779  0.00  0.00    +0.178 C 
ATOM      5  C   UNL     1      -4.102  -1.257  -3.717  0.00  0.00    +0.195 C 
ATOM      6  C   UNL     1      -5.102  -0.648  -2.727  0.00  0.00    +0.255 C 
BRANCH   6   9
ATOM      7  O   UNL     1      -7.829  -1.031  -2.223  0.00  0.00    -0.246 OA
ATOM      8  O   UNL     1      -9.091   1.764  -5.451  0.00  0.00    -0.268 OA
ATOM      9  N   UNL     1      -6.167   0.193  -3.267  0.00  0.00    -0.271 N 
ATOM     10  N   UNL     1      -8.433   0.683  -3.560  0.00  0.00    -0.275 N 
ATOM     11  C   UNL     1      -7.485  -0.091  -2.943  0.00  0.00    +0.331 A 
ATOM     12  C   UNL     1      -5.850   1.115  -4.246  0.00  0.00    +0.098 A 
ATOM     13  C   UNL     1      -6.792   1.731  -4.964  0.00  0.00    +0.088 A 
ATOM     14  C   UNL     1      -8.199   1.415  -4.686  0.00  0.00    +0.254 A 
ATOM     15  H   UNL     1      -9.395   0.424  -3.411  0.00  0.00    +0.173 HD
ENDBRANCH   6   9
BRANCH   4  16
ATOM     16  O   UNL     1      -3.243  -2.684  -2.040  0.00  0.00    -0.386 OA
ATOM     17  H   UNL     1      -3.477  -3.385  -2.679  0.00  0.00    +0.210 HD
ENDBRANCH   4  16
BRANCH   5  18
ATOM     18  O   UNL     1      -4.549  -2.498  -4.273  0.00  0.00    -0.385 OA
ATOM     19  H   UNL     1      -3.776  -3.104  -4.195  0.00  0.00    +0.210 HD
ENDBRANCH   5  18
ENDBRANCH   1   3
BRANCH   1  21
ATOM     20  O   UNL     1      -1.091   0.358   0.277  0.00  0.00    -0.274 OA
ATOM     21  N   UNL     1      -0.697   1.049  -1.855  0.00  0.00    -0.299 N 
ATOM     22  C   UNL     1      -0.354   0.908  -0.532  0.00  0.00    +0.231 C 
ATOM     23  H   UNL     1      -0.046   1.650  -2.366  0.00  0.00    +0.150 HD
BRANCH  22  24
ATOM     24  CA  UNL     1       1.024   1.487  -0.123  0.00  0.00    +0.143 C 
BRANCH  24  25
ATOM     25  N   UNL     1       1.254   1.166   1.316  0.00  0.00    -0.320 NA
ATOM     26  H1  UNL     1       1.364   2.035   1.840  0.00  0.00    +0.119 HD
ATOM     27  H2  UNL     1       0.402   0.744   1.689  0.00  0.00    +0.119 HD
ENDBRANCH  24  25
BRANCH  24  28
ATOM     28  C   UNL     1       2.174   0.959  -1.020  0.00  0.00    +0.046 C 
ATOM     29  C   UNL     1       2.486  -0.528  -0.745  0.00  0.00    +0.012 C 
BRANCH  28  30
ATOM     30  C   UNL     1       3.465   1.836  -0.989  0.00  0.00    +0.168 C 
BRANCH  30  32
ATOM     31  N   UNL     1       2.821   3.981  -2.023  0.00  0.00    -0.254 NA
ATOM     32  C   UNL     1       3.286   3.349  -0.913  0.00  0.00    +0.070 A 
ATOM     33  C   UNL     1       3.455   4.023   0.299  0.00  0.00    +0.029 A 
ATOM     34  C   UNL     1       3.191   5.388   0.371  0.00  0.00    +0.049 A 
ATOM     35  C   UNL     1       2.557   5.307  -1.920  0.00  0.00    +0.156 A 
ATOM     36  C   UNL     1       2.721   6.039  -0.754  0.00  0.00    +0.135 A 
BRANCH  36  37
ATOM     37  O   UNL     1       2.426   7.364  -0.657  0.00  0.00    -0.505 OA
ATOM     38  H   UNL     1       2.641   7.799  -1.499  0.00  0.00    +0.292 HD
ENDBRANCH  36  37
ENDBRANCH  30  32
BRANCH  30  39
ATOM     39  O   UNL     1       4.249   1.446   0.154  0.00  0.00    -0.385 OA
ATOM     40  H   UNL     1       3.612   1.378   0.892  0.00  0.00    +0.210 HD
ENDBRANCH  30  39
ENDBRANCH  28  30
ENDBRANCH  24  28
ENDBRANCH  22  24
ENDBRANCH   1  21
BRANCH   1  42
ATOM     41  OXT UNL     1      -3.061   3.139  -2.813  0.00  0.00    -0.249 OA
ATOM     42  C   UNL     1      -2.798   2.249  -2.011  0.00  0.00    +0.328 C 
BRANCH  42  43
ATOM     43  O   UNL     1      -3.146   2.330  -0.703  0.00  0.00    -0.479 OA
ATOM     44  H   UNL     1      -2.660   1.690  -0.131  0.00  0.00    +0.295 HD
ENDBRANCH  42  43
ENDBRANCH   1  42
TORSDOF 14
ENDMDL
