MODEL 1
REMARK VINA RESULT:     0.000      0.000      0.000
REMARK INTER + INTRA:          -3.570
REMARK INTER:                   0.000
REMARK INTRA:                  -3.570
REMARK UNBOUND:                -3.570
REMARK  Name = 456557
REMARK  15 active torsions:
REMARK  status: ('A' for Active; 'I' for Inactive)
REMARK    1  A    between atoms: O_2  and  C_17
REMARK    2  A    between atoms: O_3  and  C_18
REMARK    3  A    between atoms: O_4  and  C_22
REMARK    4  A    between atoms: O_7  and  C_27
REMARK    5  A    between atoms: O_10  and  C_35
REMARK    6  A    between atoms: N_11  and  C_19
REMARK    7  A    between atoms: N_12  and  CA_20
REMARK    8  A    between atoms: N_13  and  CA_21
REMARK    9  A    between atoms: C_16  and  CA_20
REMARK   10  A    between atoms: CA_20  and  C_22
REMARK   11  A    between atoms: CA_21  and  C_23
REMARK   12  A    between atoms: CA_21  and  C_24
REMARK   13  A    between atoms: C_23  and  C_27
REMARK   14  A    between atoms: C_23  and  C_28
REMARK   15  A    between atoms: C_27  and  C_30
REMARK                            x       y       z     vdW  Elec       q    Type
REMARK                         _______ _______ _______ _____ _____    ______ ____
ROOT
ATOM      1  CA  UNL     1      97.469 136.650  62.653  0.00  0.00    +0.213 C 
ENDROOT
BRANCH   1   3
ATOM      2  O   UNL     1      98.195 135.670  64.805  0.00  0.00    -0.345 OA
ATOM      3  C   UNL     1      97.154 136.460  64.158  0.00  0.00    +0.183 C 
ATOM      4  C   UNL     1      97.105 137.766  64.952  0.00  0.00    +0.178 C 
ATOM      5  C   UNL     1      98.542 137.945  65.429  0.00  0.00    +0.195 C 
ATOM      6  C   UNL     1      98.902 136.496  65.757  0.00  0.00    +0.255 C 
BRANCH   6   9
ATOM      7  O   UNL     1     100.709 136.942  67.902  0.00  0.00    -0.246 OA
ATOM      8  O   UNL     1     104.280 135.983  65.303  0.00  0.00    -0.268 OA
ATOM      9  N   UNL     1     100.324 136.138  65.763  0.00  0.00    -0.271 N 
ATOM     10  N   UNL     1     102.477 136.295  66.662  0.00  0.00    -0.275 N 
ATOM     11  C   UNL     1     101.128 136.469  66.844  0.00  0.00    +0.331 A 
ATOM     12  C   UNL     1     100.853 135.507  64.650  0.00  0.00    +0.098 A 
ATOM     13  C   UNL     1     102.168 135.348  64.483  0.00  0.00    +0.088 A 
ATOM     14  C   UNL     1     103.076 135.894  65.503  0.00  0.00    +0.254 A 
ATOM     15  H   UNL     1     103.086 136.671  67.372  0.00  0.00    +0.173 HD
ENDBRANCH   6   9
BRANCH   4  16
ATOM     16  O   UNL     1      96.309 137.636  66.156  0.00  0.00    -0.386 OA
ATOM     17  H   UNL     1      96.663 136.900  66.691  0.00  0.00    +0.210 HD
ENDBRANCH   4  16
BRANCH   5  18
ATOM     18  O   UNL     1      98.587 138.795  66.576  0.00  0.00    -0.385 OA
ATOM     19  H   UNL     1      98.306 138.233  67.334  0.00  0.00    +0.210 HD
ENDBRANCH   5  18
ENDBRANCH   1   3
BRANCH   1  21
ATOM     20  O   UNL     1      99.273 138.324  61.157  0.00  0.00    -0.274 OA
ATOM     21  N   UNL     1      97.210 137.987  62.084  0.00  0.00    -0.299 N 
ATOM     22  C   UNL     1      98.189 138.773  61.504  0.00  0.00    +0.231 C 
ATOM     23  H   UNL     1      96.409 138.520  62.416  0.00  0.00    +0.150 HD
BRANCH  22  24
ATOM     24  CA  UNL     1      97.823 140.287  61.371  0.00  0.00    +0.143 C 
BRANCH  24  25
ATOM     25  N   UNL     1      96.376 140.372  61.011  0.00  0.00    -0.320 NA
ATOM     26  H1  UNL     1      95.825 140.211  61.856  0.00  0.00    +0.119 HD
ATOM     27  H2  UNL     1      96.178 141.343  60.763  0.00  0.00    +0.119 HD
ENDBRANCH  24  25
BRANCH  24  28
ATOM     28  C   UNL     1      98.124 141.091  62.670  0.00  0.00    +0.046 C 
ATOM     29  C   UNL     1      97.111 142.231  62.930  0.00  0.00    +0.012 C 
BRANCH  28  30
ATOM     30  C   UNL     1      99.596 141.596  62.733  0.00  0.00    +0.168 C 
BRANCH  30  32
ATOM     31  N   UNL     1     100.426 141.667  65.071  0.00  0.00    -0.254 NA
ATOM     32  C   UNL     1     100.460 141.051  63.861  0.00  0.00    +0.070 A 
ATOM     33  C   UNL     1     101.222 139.900  63.646  0.00  0.00    +0.029 A 
ATOM     34  C   UNL     1     101.954 139.358  64.701  0.00  0.00    +0.049 A 
ATOM     35  C   UNL     1     101.132 141.113  66.080  0.00  0.00    +0.156 A 
ATOM     36  C   UNL     1     101.896 139.968  65.941  0.00  0.00    +0.135 A 
BRANCH  36  37
ATOM     37  O   UNL     1     102.583 139.411  66.976  0.00  0.00    -0.505 OA
ATOM     38  H   UNL     1     103.421 139.055  66.635  0.00  0.00    +0.292 HD
ENDBRANCH  36  37
ENDBRANCH  30  32
BRANCH  30  39
ATOM     39  O   UNL     1     100.250 141.314  61.486  0.00  0.00    -0.385 OA
ATOM     40  H   UNL     1      99.975 142.008  60.864  0.00  0.00    +0.210 HD
ENDBRANCH  30  39
ENDBRANCH  28  30
ENDBRANCH  24  28
ENDBRANCH  22  24
ENDBRANCH   1  21
BRANCH   1  42
ATOM     41  OXT UNL     1      96.312 135.767  60.675  0.00  0.00    -0.249 OA
ATOM     42  C   UNL     1      96.686 135.607  61.831  0.00  0.00    +0.328 C 
BRANCH  42  43
ATOM     43  O   UNL     1      96.445 134.447  62.482  0.00  0.00    -0.479 OA
ATOM     44  H   UNL     1      97.245 134.059  62.917  0.00  0.00    +0.295 HD
ENDBRANCH  42  43
ENDBRANCH   1  42
TORSDOF 14
ENDMDL
MODEL 2
REMARK VINA RESULT:     0.001      7.666     11.930
REMARK INTER + INTRA:          -3.569
REMARK INTER:                   0.000
REMARK INTRA:                  -3.569
REMARK UNBOUND:                -3.570
REMARK  Name = 456557
REMARK  15 active torsions:
REMARK  status: ('A' for Active; 'I' for Inactive)
REMARK    1  A    between atoms: O_2  and  C_17
REMARK    2  A    between atoms: O_3  and  C_18
REMARK    3  A    between atoms: O_4  and  C_22
REMARK    4  A    between atoms: O_7  and  C_27
REMARK    5  A    between atoms: O_10  and  C_35
REMARK    6  A    between atoms: N_11  and  C_19
REMARK    7  A    between atoms: N_12  and  CA_20
REMARK    8  A    between atoms: N_13  and  CA_21
REMARK    9  A    between atoms: C_16  and  CA_20
REMARK   10  A    between atoms: CA_20  and  C_22
REMARK   11  A    between atoms: CA_21  and  C_23
REMARK   12  A    between atoms: CA_21  and  C_24
REMARK   13  A    between atoms: C_23  and  C_27
REMARK   14  A    between atoms: C_23  and  C_28
REMARK   15  A    between atoms: C_27  and  C_30
REMARK                            x       y       z     vdW  Elec       q    Type
REMARK                         _______ _______ _______ _____ _____    ______ ____
ROOT
ATOM      1  CA  UNL     1      95.678 131.719  60.638  0.00  0.00    +0.213 C 
ENDROOT
BRANCH   1   3
ATOM      2  O   UNL     1      95.296 129.662  59.321  0.00  0.00    -0.345 OA
ATOM      3  C   UNL     1      95.639 131.076  59.230  0.00  0.00    +0.183 C 
ATOM      4  C   UNL     1      94.580 131.675  58.302  0.00  0.00    +0.178 C 
ATOM      5  C   UNL     1      93.349 130.815  58.566  0.00  0.00    +0.195 C 
ATOM      6  C   UNL     1      94.005 129.441  58.710  0.00  0.00    +0.255 C 
BRANCH   6   9
ATOM      7  O   UNL     1      91.911 127.821  57.682  0.00  0.00    -0.246 OA
ATOM      8  O   UNL     1      90.777 126.385  61.814  0.00  0.00    -0.268 OA
ATOM      9  N   UNL     1      93.269 128.418  59.461  0.00  0.00    -0.271 N 
ATOM     10  N   UNL     1      91.454 126.967  59.717  0.00  0.00    -0.275 N 
ATOM     11  C   UNL     1      92.216 127.735  58.873  0.00  0.00    +0.331 A 
ATOM     12  C   UNL     1      93.621 128.184  60.780  0.00  0.00    +0.098 A 
ATOM     13  C   UNL     1      92.869 127.438  61.593  0.00  0.00    +0.088 A 
ATOM     14  C   UNL     1      91.613 126.880  61.070  0.00  0.00    +0.254 A 
ATOM     15  H   UNL     1      90.599 126.587  59.343  0.00  0.00    +0.173 HD
ENDBRANCH   6   9
BRANCH   4  16
ATOM     16  O   UNL     1      94.907 131.469  56.906  0.00  0.00    -0.386 OA
ATOM     17  H   UNL     1      94.227 130.895  56.504  0.00  0.00    +0.210 HD
ENDBRANCH   4  16
BRANCH   5  18
ATOM     18  O   UNL     1      92.448 130.880  57.461  0.00  0.00    -0.385 OA
ATOM     19  H   UNL     1      91.714 131.469  57.751  0.00  0.00    +0.210 HD
ENDBRANCH   5  18
ENDBRANCH   1   3
BRANCH   1  21
ATOM     20  O   UNL     1      93.677 132.613  62.508  0.00  0.00    -0.274 OA
ATOM     21  N   UNL     1      95.091 133.068  60.769  0.00  0.00    -0.299 N 
ATOM     22  C   UNL     1      94.030 133.362  61.606  0.00  0.00    +0.231 C 
ATOM     23  H   UNL     1      95.196 133.730  60.003  0.00  0.00    +0.150 HD
BRANCH  22  24
ATOM     24  CA  UNL     1      93.287 134.697  61.281  0.00  0.00    +0.143 C 
BRANCH  24  25
ATOM     25  N   UNL     1      94.316 135.697  60.867  0.00  0.00    -0.320 NA
ATOM     26  H1  UNL     1      94.618 135.473  59.917  0.00  0.00    +0.119 HD
ATOM     27  H2  UNL     1      93.847 136.601  60.776  0.00  0.00    +0.119 HD
ENDBRANCH  24  25
BRANCH  24  28
ATOM     28  C   UNL     1      92.202 134.524  60.179  0.00  0.00    +0.046 C 
ATOM     29  C   UNL     1      92.056 135.765  59.266  0.00  0.00    +0.012 C 
BRANCH  28  30
ATOM     30  C   UNL     1      90.830 134.064  60.758  0.00  0.00    +0.168 C 
BRANCH  30  32
ATOM     31  N   UNL     1      89.615 132.615  59.150  0.00  0.00    -0.254 NA
ATOM     32  C   UNL     1      90.319 132.703  60.308  0.00  0.00    +0.070 A 
ATOM     33  C   UNL     1      90.633 131.570  61.063  0.00  0.00    +0.029 A 
ATOM     34  C   UNL     1      90.229 130.315  60.612  0.00  0.00    +0.049 A 
ATOM     35  C   UNL     1      89.249 131.385  58.728  0.00  0.00    +0.156 A 
ATOM     36  C   UNL     1      89.537 130.221  59.417  0.00  0.00    +0.135 A 
BRANCH  36  37
ATOM     37  O   UNL     1      89.180 128.988  58.964  0.00  0.00    -0.505 OA
ATOM     38  H   UNL     1      88.252 128.828  59.205  0.00  0.00    +0.292 HD
ENDBRANCH  36  37
ENDBRANCH  30  32
BRANCH  30  39
ATOM     39  O   UNL     1      90.892 134.073  62.192  0.00  0.00    -0.385 OA
ATOM     40  H   UNL     1      90.543 134.933  62.481  0.00  0.00    +0.210 HD
ENDBRANCH  30  39
ENDBRANCH  28  30
ENDBRANCH  24  28
ENDBRANCH  22  24
ENDBRANCH   1  21
BRANCH   1  42
ATOM     41  OXT UNL     1      97.580 132.604  61.917  0.00  0.00    -0.249 OA
ATOM     42  C   UNL     1      97.136 131.768  61.138  0.00  0.00    +0.328 C 
BRANCH  42  43
ATOM     43  O   UNL     1      97.924 130.777  60.663  0.00  0.00    -0.479 OA
ATOM     44  H   UNL     1      98.091 130.051  61.315  0.00  0.00    +0.295 HD
ENDBRANCH  42  43
ENDBRANCH   1  42
TORSDOF 14
ENDMDL
MODEL 3
REMARK VINA RESULT:     0.001      6.976      9.167
REMARK INTER + INTRA:          -3.568
REMARK INTER:                   0.000
REMARK INTRA:                  -3.568
REMARK UNBOUND:                -3.570
REMARK  Name = 456557
REMARK  15 active torsions:
REMARK  status: ('A' for Active; 'I' for Inactive)
REMARK    1  A    between atoms: O_2  and  C_17
REMARK    2  A    between atoms: O_3  and  C_18
REMARK    3  A    between atoms: O_4  and  C_22
REMARK    4  A    between atoms: O_7  and  C_27
REMARK    5  A    between atoms: O_10  and  C_35
REMARK    6  A    between atoms: N_11  and  C_19
REMARK    7  A    between atoms: N_12  and  CA_20
REMARK    8  A    between atoms: N_13  and  CA_21
REMARK    9  A    between atoms: C_16  and  CA_20
REMARK   10  A    between atoms: CA_20  and  C_22
REMARK   11  A    between atoms: CA_21  and  C_23
REMARK   12  A    between atoms: CA_21  and  C_24
REMARK   13  A    between atoms: C_23  and  C_27
REMARK   14  A    between atoms: C_23  and  C_28
REMARK   15  A    between atoms: C_27  and  C_30
REMARK                            x       y       z     vdW  Elec       q    Type
REMARK                         _______ _______ _______ _____ _____    ______ ____
ROOT
ATOM      1  CA  UNL     1      95.763 132.387  61.785  0.00  0.00    +0.213 C 
ENDROOT
BRANCH   1   3
ATOM      2  O   UNL     1      96.735 130.411  60.659  0.00  0.00    -0.345 OA
ATOM      3  C   UNL     1      95.514 130.960  61.238  0.00  0.00    +0.183 C 
ATOM      4  C   UNL     1      95.100 129.948  62.308  0.00  0.00    +0.178 C 
ATOM      5  C   UNL     1      96.429 129.372  62.784  0.00  0.00    +0.195 C 
ATOM      6  C   UNL     1      97.182 129.291  61.455  0.00  0.00    +0.255 C 
BRANCH   6   9
ATOM      7  O   UNL     1      98.791 127.009  61.975  0.00  0.00    -0.246 OA
ATOM      8  O   UNL     1     102.487 129.546  62.539  0.00  0.00    -0.268 OA
ATOM      9  N   UNL     1      98.647 129.274  61.510  0.00  0.00    -0.271 N 
ATOM     10  N   UNL     1     100.669 128.250  62.084  0.00  0.00    -0.275 N 
ATOM     11  C   UNL     1      99.326 128.111  61.842  0.00  0.00    +0.331 A 
ATOM     12  C   UNL     1      99.332 130.453  61.267  0.00  0.00    +0.098 A 
ATOM     13  C   UNL     1     100.639 130.577  61.511  0.00  0.00    +0.088 A 
ATOM     14  C   UNL     1     101.357 129.429  62.086  0.00  0.00    +0.254 A 
ATOM     15  H   UNL     1     101.148 127.453  62.473  0.00  0.00    +0.173 HD
ENDBRANCH   6   9
BRANCH   4  16
ATOM     16  O   UNL     1      94.373 128.830  61.741  0.00  0.00    -0.386 OA
ATOM     17  H   UNL     1      93.451 129.104  61.576  0.00  0.00    +0.210 HD
ENDBRANCH   4  16
BRANCH   5  18
ATOM     18  O   UNL     1      96.233 128.091  63.383  0.00  0.00    -0.385 OA
ATOM     19  H   UNL     1      97.073 127.598  63.237  0.00  0.00    +0.210 HD
ENDBRANCH   5  18
ENDBRANCH   1   3
BRANCH   1  21
ATOM     20  O   UNL     1      97.026 133.461  64.140  0.00  0.00    -0.274 OA
ATOM     21  N   UNL     1      95.140 132.720  63.081  0.00  0.00    -0.299 N 
ATOM     22  C   UNL     1      95.859 133.098  64.200  0.00  0.00    +0.231 C 
ATOM     23  H   UNL     1      94.221 132.341  63.300  0.00  0.00    +0.150 HD
BRANCH  22  24
ATOM     24  CA  UNL     1      95.083 132.976  65.551  0.00  0.00    +0.143 C 
BRANCH  24  25
ATOM     25  N   UNL     1      93.671 133.392  65.300  0.00  0.00    -0.320 NA
ATOM     26  H1  UNL     1      93.679 134.175  64.644  0.00  0.00    +0.119 HD
ATOM     27  H2  UNL     1      93.215 132.636  64.784  0.00  0.00    +0.119 HD
ENDBRANCH  24  25
BRANCH  24  28
ATOM     28  C   UNL     1      95.145 131.540  66.149  0.00  0.00    +0.046 C 
ATOM     29  C   UNL     1      93.852 131.134  66.895  0.00  0.00    +0.012 C 
BRANCH  28  30
ATOM     30  C   UNL     1      96.416 131.310  67.020  0.00  0.00    +0.168 C 
BRANCH  30  32
ATOM     31  N   UNL     1      97.192 128.956  66.879  0.00  0.00    -0.254 NA
ATOM     32  C   UNL     1      97.398 130.253  66.534  0.00  0.00    +0.070 A 
ATOM     33  C   UNL     1      98.452 130.632  65.699  0.00  0.00    +0.029 A 
ATOM     34  C   UNL     1      99.307 129.654  65.193  0.00  0.00    +0.049 A 
ATOM     35  C   UNL     1      98.026 128.028  66.363  0.00  0.00    +0.156 A 
ATOM     36  C   UNL     1      99.080 128.329  65.520  0.00  0.00    +0.135 A 
BRANCH  36  37
ATOM     37  O   UNL     1      99.896 127.376  64.991  0.00  0.00    -0.505 OA
ATOM     38  H   UNL     1     100.813 127.584  65.236  0.00  0.00    +0.292 HD
ENDBRANCH  36  37
ENDBRANCH  30  32
BRANCH  30  39
ATOM     39  O   UNL     1      97.123 132.551  67.168  0.00  0.00    -0.385 OA
ATOM     40  H   UNL     1      97.334 132.640  68.113  0.00  0.00    +0.210 HD
ENDBRANCH  30  39
ENDBRANCH  28  30
ENDBRANCH  24  28
ENDBRANCH  22  24
ENDBRANCH   1  21
BRANCH   1  42
ATOM     41  OXT UNL     1      94.908 134.553  61.002  0.00  0.00    -0.249 OA
ATOM     42  C   UNL     1      95.304 133.424  60.739  0.00  0.00    +0.328 C 
BRANCH  42  43
ATOM     43  O   UNL     1      95.388 133.000  59.457  0.00  0.00    -0.479 OA
ATOM     44  H   UNL     1      94.886 133.562  58.816  0.00  0.00    +0.295 HD
ENDBRANCH  42  43
ENDBRANCH   1  42
TORSDOF 14
ENDMDL
MODEL 4
REMARK VINA RESULT:     0.002      5.116      7.606
REMARK INTER + INTRA:          -3.567
REMARK INTER:                   0.000
REMARK INTRA:                  -3.567
REMARK UNBOUND:                -3.570
REMARK  Name = 456557
REMARK  15 active torsions:
REMARK  status: ('A' for Active; 'I' for Inactive)
REMARK    1  A    between atoms: O_2  and  C_17
REMARK    2  A    between atoms: O_3  and  C_18
REMARK    3  A    between atoms: O_4  and  C_22
REMARK    4  A    between atoms: O_7  and  C_27
REMARK    5  A    between atoms: O_10  and  C_35
REMARK    6  A    between atoms: N_11  and  C_19
REMARK    7  A    between atoms: N_12  and  CA_20
REMARK    8  A    between atoms: N_13  and  CA_21
REMARK    9  A    between atoms: C_16  and  CA_20
REMARK   10  A    between atoms: CA_20  and  C_22
REMARK   11  A    between atoms: CA_21  and  C_23
REMARK   12  A    between atoms: CA_21  and  C_24
REMARK   13  A    between atoms: C_23  and  C_27
REMARK   14  A    between atoms: C_23  and  C_28
REMARK   15  A    between atoms: C_27  and  C_30
REMARK                            x       y       z     vdW  Elec       q    Type
REMARK                         _______ _______ _______ _____ _____    ______ ____
ROOT
ATOM      1  CA  UNL     1      95.615 135.260  60.817  0.00  0.00    +0.213 C 
ENDROOT
BRANCH   1   3
ATOM      2  O   UNL     1      97.813 136.227  60.223  0.00  0.00    -0.345 OA
ATOM      3  C   UNL     1      96.878 136.002  61.320  0.00  0.00    +0.183 C 
ATOM      4  C   UNL     1      96.597 137.394  61.886  0.00  0.00    +0.178 C 
ATOM      5  C   UNL     1      96.729 138.305  60.670  0.00  0.00    +0.195 C 
ATOM      6  C   UNL     1      97.916 137.645  59.965  0.00  0.00    +0.255 C 
BRANCH   6   9
ATOM      7  O   UNL     1      99.080 139.944  58.770  0.00  0.00    -0.246 OA
ATOM      8  O   UNL     1      97.546 138.791  54.679  0.00  0.00    -0.268 OA
ATOM      9  N   UNL     1      98.059 137.879  58.525  0.00  0.00    -0.271 N 
ATOM     10  N   UNL     1      98.470 139.286  56.703  0.00  0.00    -0.275 N 
ATOM     11  C   UNL     1      98.582 139.074  58.054  0.00  0.00    +0.331 A 
ATOM     12  C   UNL     1      97.620 136.900  57.649  0.00  0.00    +0.098 A 
ATOM     13  C   UNL     1      97.510 137.121  56.336  0.00  0.00    +0.088 A 
ATOM     14  C   UNL     1      97.837 138.459  55.820  0.00  0.00    +0.254 A 
ATOM     15  H   UNL     1      98.702 140.206  56.363  0.00  0.00    +0.173 HD
ENDBRANCH   6   9
BRANCH   4  16
ATOM     16  O   UNL     1      97.631 137.822  62.806  0.00  0.00    -0.386 OA
ATOM     17  H   UNL     1      98.361 138.224  62.296  0.00  0.00    +0.210 HD
ENDBRANCH   4  16
BRANCH   5  18
ATOM     18  O   UNL     1      97.007 139.645  61.076  0.00  0.00    -0.385 OA
ATOM     19  H   UNL     1      96.130 140.062  61.236  0.00  0.00    +0.210 HD
ENDBRANCH   5  18
ENDBRANCH   1   3
BRANCH   1  21
ATOM     20  O   UNL     1      93.261 136.032  59.347  0.00  0.00    -0.274 OA
ATOM     21  N   UNL     1      94.318 135.719  61.351  0.00  0.00    -0.299 N 
ATOM     22  C   UNL     1      93.294 136.205  60.558  0.00  0.00    +0.231 C 
ATOM     23  H   UNL     1      94.264 136.034  62.317  0.00  0.00    +0.150 HD
BRANCH  22  24
ATOM     24  CA  UNL     1      92.210 137.033  61.320  0.00  0.00    +0.143 C 
BRANCH  24  25
ATOM     25  N   UNL     1      91.987 136.376  62.643  0.00  0.00    -0.320 NA
ATOM     26  H1  UNL     1      91.005 136.497  62.900  0.00  0.00    +0.119 HD
ATOM     27  H2  UNL     1      92.088 135.368  62.506  0.00  0.00    +0.119 HD
ENDBRANCH  24  25
BRANCH  24  28
ATOM     28  C   UNL     1      92.613 138.526  61.499  0.00  0.00    +0.046 C 
ATOM     29  C   UNL     1      92.115 139.137  62.830  0.00  0.00    +0.012 C 
BRANCH  28  30
ATOM     30  C   UNL     1      92.219 139.403  60.273  0.00  0.00    +0.168 C 
BRANCH  30  32
ATOM     31  N   UNL     1      93.846 141.244  59.924  0.00  0.00    -0.254 NA
ATOM     32  C   UNL     1      93.358 140.051  59.499  0.00  0.00    +0.070 A 
ATOM     33  C   UNL     1      93.915 139.377  58.409  0.00  0.00    +0.029 A 
ATOM     34  C   UNL     1      95.006 139.936  57.747  0.00  0.00    +0.049 A 
ATOM     35  C   UNL     1      94.913 141.756  59.274  0.00  0.00    +0.156 A 
ATOM     36  C   UNL     1      95.522 141.138  58.197  0.00  0.00    +0.135 A 
BRANCH  36  37
ATOM     37  O   UNL     1      96.613 141.658  57.569  0.00  0.00    -0.505 OA
ATOM     38  H   UNL     1      97.006 142.336  58.142  0.00  0.00    +0.292 HD
ENDBRANCH  36  37
ENDBRANCH  30  32
BRANCH  30  39
ATOM     39  O   UNL     1      91.439 138.618  59.358  0.00  0.00    -0.385 OA
ATOM     40  H   UNL     1      91.933 137.795  59.206  0.00  0.00    +0.210 HD
ENDBRANCH  30  39
ENDBRANCH  28  30
ENDBRANCH  24  28
ENDBRANCH  22  24
ENDBRANCH   1  21
BRANCH   1  42
ATOM     41  OXT UNL     1      94.821 132.982  61.280  0.00  0.00    -0.249 OA
ATOM     42  C   UNL     1      95.758 133.752  61.105  0.00  0.00    +0.328 C 
BRANCH  42  43
ATOM     43  O   UNL     1      97.035 133.306  61.133  0.00  0.00    -0.479 OA
ATOM     44  H   UNL     1      97.305 132.919  62.002  0.00  0.00    +0.295 HD
ENDBRANCH  42  43
ENDBRANCH   1  42
TORSDOF 14
ENDMDL
MODEL 5
REMARK VINA RESULT:     0.002      9.590     12.670
REMARK INTER + INTRA:          -3.566
REMARK INTER:                   0.000
REMARK INTRA:                  -3.566
REMARK UNBOUND:                -3.570
REMARK  Name = 456557
REMARK  15 active torsions:
REMARK  status: ('A' for Active; 'I' for Inactive)
REMARK    1  A    between atoms: O_2  and  C_17
REMARK    2  A    between atoms: O_3  and  C_18
REMARK    3  A    between atoms: O_4  and  C_22
REMARK    4  A    between atoms: O_7  and  C_27
REMARK    5  A    between atoms: O_10  and  C_35
REMARK    6  A    between atoms: N_11  and  C_19
REMARK    7  A    between atoms: N_12  and  CA_20
REMARK    8  A    between atoms: N_13  and  CA_21
REMARK    9  A    between atoms: C_16  and  CA_20
REMARK   10  A    between atoms: CA_20  and  C_22
REMARK   11  A    between atoms: CA_21  and  C_23
REMARK   12  A    between atoms: CA_21  and  C_24
REMARK   13  A    between atoms: C_23  and  C_27
REMARK   14  A    between atoms: C_23  and  C_28
REMARK   15  A    between atoms: C_27  and  C_30
REMARK                            x       y       z     vdW  Elec       q    Type
REMARK                         _______ _______ _______ _____ _____    ______ ____
ROOT
ATOM      1  CA  UNL     1      91.322 133.345  60.095  0.00  0.00    +0.213 C 
ENDROOT
BRANCH   1   3
ATOM      2  O   UNL     1      92.803 135.179  59.348  0.00  0.00    -0.345 OA
ATOM      3  C   UNL     1      91.919 134.737  60.420  0.00  0.00    +0.183 C 
ATOM      4  C   UNL     1      90.874 135.847  60.547  0.00  0.00    +0.178 C 
ATOM      5  C   UNL     1      90.761 136.392  59.128  0.00  0.00    +0.195 C 
ATOM      6  C   UNL     1      92.228 136.334  58.698  0.00  0.00    +0.255 C 
BRANCH   6   9
ATOM      7  O   UNL     1      92.283 138.569  56.946  0.00  0.00    -0.246 OA
ATOM      8  O   UNL     1      92.351 135.906  53.295  0.00  0.00    -0.268 OA
ATOM      9  N   UNL     1      92.507 136.284  57.259  0.00  0.00    -0.271 N 
ATOM     10  N   UNL     1      92.495 137.250  55.130  0.00  0.00    -0.275 N 
ATOM     11  C   UNL     1      92.438 137.435  56.488  0.00  0.00    +0.331 A 
ATOM     12  C   UNL     1      92.795 135.058  56.683  0.00  0.00    +0.098 A 
ATOM     13  C   UNL     1      92.843 134.891  55.359  0.00  0.00    +0.088 A 
ATOM     14  C   UNL     1      92.546 136.043  54.495  0.00  0.00    +0.254 A 
ATOM     15  H   UNL     1      92.293 138.050  54.551  0.00  0.00    +0.173 HD
ENDBRANCH   6   9
BRANCH   4  16
ATOM     16  O   UNL     1      91.356 136.952  61.351  0.00  0.00    -0.386 OA
ATOM     17  H   UNL     1      92.303 137.091  61.162  0.00  0.00    +0.210 HD
ENDBRANCH   4  16
BRANCH   5  18
ATOM     18  O   UNL     1      90.245 137.723  59.143  0.00  0.00    -0.385 OA
ATOM     19  H   UNL     1      90.937 138.281  58.719  0.00  0.00    +0.210 HD
ENDBRANCH   5  18
ENDBRANCH   1   3
BRANCH   1  21
ATOM     20  O   UNL     1      89.228 132.396  58.360  0.00  0.00    -0.274 OA
ATOM     21  N   UNL     1      89.895 133.143  60.415  0.00  0.00    -0.299 N 
ATOM     22  C   UNL     1      88.938 132.819  59.471  0.00  0.00    +0.231 C 
ATOM     23  H   UNL     1      89.508 133.582  61.248  0.00  0.00    +0.150 HD
BRANCH  22  24
ATOM     24  CA  UNL     1      87.463 133.081  59.914  0.00  0.00    +0.143 C 
BRANCH  24  25
ATOM     25  N   UNL     1      87.353 132.716  61.358  0.00  0.00    -0.320 NA
ATOM     26  H1  UNL     1      86.366 132.737  61.620  0.00  0.00    +0.119 HD
ATOM     27  H2  UNL     1      87.615 131.732  61.446  0.00  0.00    +0.119 HD
ENDBRANCH  24  25
BRANCH  24  28
ATOM     28  C   UNL     1      87.020 134.554  59.674  0.00  0.00    +0.046 C 
ATOM     29  C   UNL     1      86.039 135.078  60.750  0.00  0.00    +0.012 C 
BRANCH  28  30
ATOM     30  C   UNL     1      86.480 134.789  58.232  0.00  0.00    +0.168 C 
BRANCH  30  32
ATOM     31  N   UNL     1      86.994 137.084  57.440  0.00  0.00    -0.254 NA
ATOM     32  C   UNL     1      87.264 135.756  57.356  0.00  0.00    +0.070 A 
ATOM     33  C   UNL     1      88.280 135.265  56.533  0.00  0.00    +0.029 A 
ATOM     34  C   UNL     1      89.047 136.158  55.788  0.00  0.00    +0.049 A 
ATOM     35  C   UNL     1      87.762 137.929  56.719  0.00  0.00    +0.156 A 
ATOM     36  C   UNL     1      88.792 137.514  55.894  0.00  0.00    +0.135 A 
BRANCH  36  37
ATOM     37  O   UNL     1      89.571 138.383  55.193  0.00  0.00    -0.505 OA
ATOM     38  H   UNL     1      89.424 139.278  55.539  0.00  0.00    +0.292 HD
ENDBRANCH  36  37
ENDBRANCH  30  32
BRANCH  30  39
ATOM     39  O   UNL     1      86.390 133.530  57.547  0.00  0.00    -0.385 OA
ATOM     40  H   UNL     1      85.764 133.656  56.814  0.00  0.00    +0.210 HD
ENDBRANCH  30  39
ENDBRANCH  28  30
ENDBRANCH  24  28
ENDBRANCH  22  24
ENDBRANCH   1  21
BRANCH   1  42
ATOM     41  OXT UNL     1      91.702 131.172  61.176  0.00  0.00    -0.249 OA
ATOM     42  C   UNL     1      92.145 132.255  60.812  0.00  0.00    +0.328 C 
BRANCH  42  43
ATOM     43  O   UNL     1      93.446 132.571  61.003  0.00  0.00    -0.479 OA
ATOM     44  H   UNL     1      93.584 133.395  61.533  0.00  0.00    +0.295 HD
ENDBRANCH  42  43
ENDBRANCH   1  42
TORSDOF 14
ENDMDL
MODEL 6
REMARK VINA RESULT:     0.003      6.686      9.079
REMARK INTER + INTRA:          -3.565
REMARK INTER:                   0.000
REMARK INTRA:                  -3.565
REMARK UNBOUND:                -3.570
REMARK  Name = 456557
REMARK  15 active torsions:
REMARK  status: ('A' for Active; 'I' for Inactive)
REMARK    1  A    between atoms: O_2  and  C_17
REMARK    2  A    between atoms: O_3  and  C_18
REMARK    3  A    between atoms: O_4  and  C_22
REMARK    4  A    between atoms: O_7  and  C_27
REMARK    5  A    between atoms: O_10  and  C_35
REMARK    6  A    between atoms: N_11  and  C_19
REMARK    7  A    between atoms: N_12  and  CA_20
REMARK    8  A    between atoms: N_13  and  CA_21
REMARK    9  A    between atoms: C_16  and  CA_20
REMARK   10  A    between atoms: CA_20  and  C_22
REMARK   11  A    between atoms: CA_21  and  C_23
REMARK   12  A    between atoms: CA_21  and  C_24
REMARK   13  A    between atoms: C_23  and  C_27
REMARK   14  A    between atoms: C_23  and  C_28
REMARK   15  A    between atoms: C_27  and  C_30
REMARK                            x       y       z     vdW  Elec       q    Type
REMARK                         _______ _______ _______ _____ _____    ______ ____
ROOT
ATOM      1  CA  UNL     1      91.779 140.879  62.261  0.00  0.00    +0.213 C 
ENDROOT
BRANCH   1   3
ATOM      2  O   UNL     1      94.032 141.179  61.284  0.00  0.00    -0.345 OA
ATOM      3  C   UNL     1      93.257 140.415  62.256  0.00  0.00    +0.183 C 
ATOM      4  C   UNL     1      93.980 140.631  63.586  0.00  0.00    +0.178 C 
ATOM      5  C   UNL     1      94.574 142.028  63.446  0.00  0.00    +0.195 C 
ATOM      6  C   UNL     1      95.002 141.994  61.978  0.00  0.00    +0.255 C 
BRANCH   6   9
ATOM      7  O   UNL     1      97.276 143.690  62.120  0.00  0.00    -0.246 OA
ATOM      8  O   UNL     1      95.056 147.098  60.152  0.00  0.00    -0.268 OA
ATOM      9  N   UNL     1      95.152 143.280  61.289  0.00  0.00    -0.271 N 
ATOM     10  N   UNL     1      96.231 145.331  60.983  0.00  0.00    -0.275 N 
ATOM     11  C   UNL     1      96.283 144.058  61.489  0.00  0.00    +0.331 A 
ATOM     12  C   UNL     1      94.122 143.719  60.474  0.00  0.00    +0.098 A 
ATOM     13  C   UNL     1      94.081 144.963  59.991  0.00  0.00    +0.088 A 
ATOM     14  C   UNL     1      95.151 145.898  60.370  0.00  0.00    +0.254 A 
ATOM     15  H   UNL     1      96.974 145.960  61.247  0.00  0.00    +0.173 HD
ENDBRANCH   6   9
BRANCH   4  16
ATOM     16  O   UNL     1      95.114 139.740  63.735  0.00  0.00    -0.386 OA
ATOM     17  H   UNL     1      94.794 138.873  64.051  0.00  0.00    +0.210 HD
ENDBRANCH   4  16
BRANCH   5  18
ATOM     18  O   UNL     1      95.678 142.194  64.336  0.00  0.00    -0.385 OA
ATOM     19  H   UNL     1      96.474 142.274  63.760  0.00  0.00    +0.210 HD
ENDBRANCH   5  18
ENDBRANCH   1   3
BRANCH   1  21
ATOM     20  O   UNL     1      90.371 143.147  63.344  0.00  0.00    -0.274 OA
ATOM     21  N   UNL     1      91.126 141.001  63.579  0.00  0.00    -0.299 N 
ATOM     22  C   UNL     1      90.598 142.184  64.064  0.00  0.00    +0.231 C 
ATOM     23  H   UNL     1      91.360 140.334  64.311  0.00  0.00    +0.150 HD
BRANCH  22  24
ATOM     24  CA  UNL     1      90.361 142.214  65.608  0.00  0.00    +0.143 C 
BRANCH  24  25
ATOM     25  N   UNL     1      89.868 140.864  66.015  0.00  0.00    -0.320 NA
ATOM     26  H1  UNL     1      90.320 140.609  66.895  0.00  0.00    +0.119 HD
ATOM     27  H2  UNL     1      88.880 140.959  66.259  0.00  0.00    +0.119 HD
ENDBRANCH  24  25
BRANCH  24  28
ATOM     28  C   UNL     1      91.641 142.604  66.402  0.00  0.00    +0.046 C 
ATOM     29  C   UNL     1      91.755 141.885  67.768  0.00  0.00    +0.012 C 
BRANCH  28  30
ATOM     30  C   UNL     1      91.811 144.146  66.542  0.00  0.00    +0.168 C 
BRANCH  30  32
ATOM     31  N   UNL     1      94.208 144.792  66.570  0.00  0.00    -0.254 NA
ATOM     32  C   UNL     1      93.037 144.763  65.883  0.00  0.00    +0.070 A 
ATOM     33  C   UNL     1      92.945 145.230  64.570  0.00  0.00    +0.029 A 
ATOM     34  C   UNL     1      94.085 145.726  63.941  0.00  0.00    +0.049 A 
ATOM     35  C   UNL     1      95.301 145.264  65.932  0.00  0.00    +0.156 A 
ATOM     36  C   UNL     1      95.285 145.729  64.629  0.00  0.00    +0.135 A 
BRANCH  36  37
ATOM     37  O   UNL     1      96.403 146.179  63.994  0.00  0.00    -0.505 OA
ATOM     38  H   UNL     1      97.121 146.249  64.645  0.00  0.00    +0.292 HD
ENDBRANCH  36  37
ENDBRANCH  30  32
BRANCH  30  39
ATOM     39  O   UNL     1      90.642 144.802  66.028  0.00  0.00    -0.385 OA
ATOM     40  H   UNL     1      90.174 144.149  65.480  0.00  0.00    +0.210 HD
ENDBRANCH  30  39
ENDBRANCH  28  30
ENDBRANCH  24  28
ENDBRANCH  22  24
ENDBRANCH   1  21
BRANCH   1  42
ATOM     41  OXT UNL     1      89.749 139.695  61.548  0.00  0.00    -0.249 OA
ATOM     42  C   UNL     1      90.941 139.927  61.384  0.00  0.00    +0.328 C 
BRANCH  42  43
ATOM     43  O   UNL     1      91.625 139.356  60.367  0.00  0.00    -0.479 OA
ATOM     44  H   UNL     1      92.153 139.998  59.830  0.00  0.00    +0.295 HD
ENDBRANCH  42  43
ENDBRANCH   1  42
TORSDOF 14
ENDMDL
MODEL 7
REMARK VINA RESULT:     0.003     12.961     14.511
REMARK INTER + INTRA:          -3.565
REMARK INTER:                   0.000
REMARK INTRA:                  -3.565
REMARK UNBOUND:                -3.570
REMARK  Name = 456557
REMARK  15 active torsions:
REMARK  status: ('A' for Active; 'I' for Inactive)
REMARK    1  A    between atoms: O_2  and  C_17
REMARK    2  A    between atoms: O_3  and  C_18
REMARK    3  A    between atoms: O_4  and  C_22
REMARK    4  A    between atoms: O_7  and  C_27
REMARK    5  A    between atoms: O_10  and  C_35
REMARK    6  A    between atoms: N_11  and  C_19
REMARK    7  A    between atoms: N_12  and  CA_20
REMARK    8  A    between atoms: N_13  and  CA_21
REMARK    9  A    between atoms: C_16  and  CA_20
REMARK   10  A    between atoms: CA_20  and  C_22
REMARK   11  A    between atoms: CA_21  and  C_23
REMARK   12  A    between atoms: CA_21  and  C_24
REMARK   13  A    between atoms: C_23  and  C_27
REMARK   14  A    between atoms: C_23  and  C_28
REMARK   15  A    between atoms: C_27  and  C_30
REMARK                            x       y       z     vdW  Elec       q    Type
REMARK                         _______ _______ _______ _____ _____    ______ ____
ROOT
ATOM      1  CA  UNL     1      86.684 133.139  60.901  0.00  0.00    +0.213 C 
ENDROOT
BRANCH   1   3
ATOM      2  O   UNL     1      86.640 130.667  60.926  0.00  0.00    -0.345 OA
ATOM      3  C   UNL     1      85.807 131.863  60.886  0.00  0.00    +0.183 C 
ATOM      4  C   UNL     1      84.880 131.732  62.096  0.00  0.00    +0.178 C 
ATOM      5  C   UNL     1      85.721 130.962  63.107  0.00  0.00    +0.195 C 
ATOM      6  C   UNL     1      86.427 129.974  62.176  0.00  0.00    +0.255 C 
BRANCH   6   9
ATOM      7  O   UNL     1      86.675 127.766  63.944  0.00  0.00    -0.246 OA
ATOM      8  O   UNL     1      91.091 128.526  64.528  0.00  0.00    -0.268 OA
ATOM      9  N   UNL     1      87.689 129.392  62.642  0.00  0.00    -0.271 N 
ATOM     10  N   UNL     1      88.907 128.031  64.102  0.00  0.00    -0.275 N 
ATOM     11  C   UNL     1      87.688 128.355  63.563  0.00  0.00    +0.331 A 
ATOM     12  C   UNL     1      88.878 129.930  62.178  0.00  0.00    +0.098 A 
ATOM     13  C   UNL     1      90.058 129.610  62.714  0.00  0.00    +0.088 A 
ATOM     14  C   UNL     1      90.082 128.682  63.855  0.00  0.00    +0.254 A 
ATOM     15  H   UNL     1      88.908 127.390  64.880  0.00  0.00    +0.173 HD
ENDBRANCH   6   9
BRANCH   4  16
ATOM     16  O   UNL     1      83.739 130.884  61.813  0.00  0.00    -0.386 OA
ATOM     17  H   UNL     1      83.453 131.036  60.891  0.00  0.00    +0.210 HD
ENDBRANCH   4  16
BRANCH   5  18
ATOM     18  O   UNL     1      84.884 130.312  64.063  0.00  0.00    -0.385 OA
ATOM     19  H   UNL     1      84.637 131.007  64.716  0.00  0.00    +0.210 HD
ENDBRANCH   5  18
ENDBRANCH   1   3
BRANCH   1  21
ATOM     20  O   UNL     1      88.148 134.569  62.928  0.00  0.00    -0.274 OA
ATOM     21  N   UNL     1      86.217 134.257  61.745  0.00  0.00    -0.299 N 
ATOM     22  C   UNL     1      86.951 134.783  62.792  0.00  0.00    +0.231 C 
ATOM     23  H   UNL     1      85.217 134.432  61.824  0.00  0.00    +0.150 HD
BRANCH  22  24
ATOM     24  CA  UNL     1      86.125 135.630  63.812  0.00  0.00    +0.143 C 
BRANCH  24  25
ATOM     25  N   UNL     1      85.117 136.415  63.038  0.00  0.00    -0.320 NA
ATOM     26  H1  UNL     1      85.513 136.627  62.120  0.00  0.00    +0.119 HD
ATOM     27  H2  UNL     1      84.333 135.792  62.836  0.00  0.00    +0.119 HD
ENDBRANCH  24  25
BRANCH  24  28
ATOM     28  C   UNL     1      85.436 134.754  64.898  0.00  0.00    +0.046 C 
ATOM     29  C   UNL     1      84.062 135.305  65.346  0.00  0.00    +0.012 C 
BRANCH  28  30
ATOM     30  C   UNL     1      86.369 134.462  66.111  0.00  0.00    +0.168 C 
BRANCH  30  32
ATOM     31  N   UNL     1      85.903 132.229  67.091  0.00  0.00    -0.254 NA
ATOM     32  C   UNL     1      86.740 133.006  66.356  0.00  0.00    +0.070 A 
ATOM     33  C   UNL     1      87.898 132.487  65.772  0.00  0.00    +0.029 A 
ATOM     34  C   UNL     1      88.198 131.136  65.934  0.00  0.00    +0.049 A 
ATOM     35  C   UNL     1      86.209 130.920  67.220  0.00  0.00    +0.156 A 
ATOM     36  C   UNL     1      87.331 130.337  66.658  0.00  0.00    +0.135 A 
BRANCH  36  37
ATOM     37  O   UNL     1      87.611 129.010  66.779  0.00  0.00    -0.505 OA
ATOM     38  H   UNL     1      87.378 128.726  67.679  0.00  0.00    +0.292 HD
ENDBRANCH  36  37
ENDBRANCH  30  32
BRANCH  30  39
ATOM     39  O   UNL     1      87.580 135.220  65.974  0.00  0.00    -0.385 OA
ATOM     40  H   UNL     1      87.606 135.539  65.056  0.00  0.00    +0.210 HD
ENDBRANCH  30  39
ENDBRANCH  28  30
ENDBRANCH  24  28
ENDBRANCH  22  24
ENDBRANCH   1  21
BRANCH   1  42
ATOM     41  OXT UNL     1      87.024 134.830  59.152  0.00  0.00    -0.249 OA
ATOM     42  C   UNL     1      86.862 133.654  59.458  0.00  0.00    +0.328 C 
BRANCH  42  43
ATOM     43  O   UNL     1      86.851 132.687  58.514  0.00  0.00    -0.479 OA
ATOM     44  H   UNL     1      86.042 132.118  58.534  0.00  0.00    +0.295 HD
ENDBRANCH  42  43
ENDBRANCH   1  42
TORSDOF 14
ENDMDL
MODEL 8
REMARK VINA RESULT:     0.004      7.739     11.465
REMARK INTER + INTRA:          -3.563
REMARK INTER:                   0.000
REMARK INTRA:                  -3.563
REMARK UNBOUND:                -3.570
REMARK  Name = 456557
REMARK  15 active torsions:
REMARK  status: ('A' for Active; 'I' for Inactive)
REMARK    1  A    between atoms: O_2  and  C_17
REMARK    2  A    between atoms: O_3  and  C_18
REMARK    3  A    between atoms: O_4  and  C_22
REMARK    4  A    between atoms: O_7  and  C_27
REMARK    5  A    between atoms: O_10  and  C_35
REMARK    6  A    between atoms: N_11  and  C_19
REMARK    7  A    between atoms: N_12  and  CA_20
REMARK    8  A    between atoms: N_13  and  CA_21
REMARK    9  A    between atoms: C_16  and  CA_20
REMARK   10  A    between atoms: CA_20  and  C_22
REMARK   11  A    between atoms: CA_21  and  C_23
REMARK   12  A    between atoms: CA_21  and  C_24
REMARK   13  A    between atoms: C_23  and  C_27
REMARK   14  A    between atoms: C_23  and  C_28
REMARK   15  A    between atoms: C_27  and  C_30
REMARK                            x       y       z     vdW  Elec       q    Type
REMARK                         _______ _______ _______ _____ _____    ______ ____
ROOT
ATOM      1  CA  UNL     1      94.488 136.515  54.543  0.00  0.00    +0.213 C 
ENDROOT
BRANCH   1   3
ATOM      2  O   UNL     1      95.534 135.988  56.721  0.00  0.00    -0.345 OA
ATOM      3  C   UNL     1      95.157 135.433  55.426  0.00  0.00    +0.183 C 
ATOM      4  C   UNL     1      94.245 134.251  55.759  0.00  0.00    +0.178 C 
ATOM      5  C   UNL     1      93.568 134.679  57.057  0.00  0.00    +0.195 C 
ATOM      6  C   UNL     1      94.739 135.369  57.758  0.00  0.00    +0.255 C 
BRANCH   6   9
ATOM      7  O   UNL     1      94.074 134.782  60.456  0.00  0.00    -0.246 OA
ATOM      8  O   UNL     1      92.685 139.016  61.203  0.00  0.00    -0.268 OA
ATOM      9  N   UNL     1      94.417 136.358  58.792  0.00  0.00    -0.271 N 
ATOM     10  N   UNL     1      93.546 136.930  60.885  0.00  0.00    -0.275 N 
ATOM     11  C   UNL     1      94.038 135.949  60.062  0.00  0.00    +0.331 A 
ATOM     12  C   UNL     1      94.456 137.701  58.459  0.00  0.00    +0.098 A 
ATOM     13  C   UNL     1      93.969 138.646  59.267  0.00  0.00    +0.088 A 
ATOM     14  C   UNL     1      93.344 138.234  60.532  0.00  0.00    +0.254 A 
ATOM     15  H   UNL     1      93.125 136.632  61.751  0.00  0.00    +0.173 HD
ENDBRANCH   6   9
BRANCH   4  16
ATOM     16  O   UNL     1      95.002 133.061  56.090  0.00  0.00    -0.386 OA
ATOM     17  H   UNL     1      95.906 133.323  56.349  0.00  0.00    +0.210 HD
ENDBRANCH   4  16
BRANCH   5  18
ATOM     18  O   UNL     1      93.094 133.539  57.773  0.00  0.00    -0.385 OA
ATOM     19  H   UNL     1      93.346 132.758  57.228  0.00  0.00    +0.210 HD
ENDBRANCH   5  18
ENDBRANCH   1   3
BRANCH   1  21
ATOM     20  O   UNL     1      91.880 137.736  54.459  0.00  0.00    -0.274 OA
ATOM     21  N   UNL     1      93.310 136.096  53.757  0.00  0.00    -0.299 N 
ATOM     22  C   UNL     1      92.057 136.665  53.895  0.00  0.00    +0.231 C 
ATOM     23  H   UNL     1      93.286 135.158  53.363  0.00  0.00    +0.150 HD
BRANCH  22  24
ATOM     24  CA  UNL     1      90.882 135.811  53.319  0.00  0.00    +0.143 C 
BRANCH  24  25
ATOM     25  N   UNL     1      91.362 135.173  52.057  0.00  0.00    -0.320 NA
ATOM     26  H1  UNL     1      91.973 135.836  51.575  0.00  0.00    +0.119 HD
ATOM     27  H2  UNL     1      91.983 134.404  52.319  0.00  0.00    +0.119 HD
ENDBRANCH  24  25
BRANCH  24  28
ATOM     28  C   UNL     1      90.370 134.741  54.327  0.00  0.00    +0.046 C 
ATOM     29  C   UNL     1      89.899 133.435  53.643  0.00  0.00    +0.012 C 
BRANCH  28  30
ATOM     30  C   UNL     1      89.296 135.305  55.304  0.00  0.00    +0.168 C 
BRANCH  30  32
ATOM     31  N   UNL     1      89.434 134.210  57.528  0.00  0.00    -0.254 NA
ATOM     32  C   UNL     1      89.657 135.323  56.783  0.00  0.00    +0.070 A 
ATOM     33  C   UNL     1      90.263 136.459  57.326  0.00  0.00    +0.029 A 
ATOM     34  C   UNL     1      90.661 136.448  58.661  0.00  0.00    +0.049 A 
ATOM     35  C   UNL     1      89.844 134.221  58.814  0.00  0.00    +0.156 A 
ATOM     36  C   UNL     1      90.461 135.304  59.413  0.00  0.00    +0.135 A 
BRANCH  36  37
ATOM     37  O   UNL     1      90.888 135.288  60.705  0.00  0.00    -0.505 OA
ATOM     38  H   UNL     1      90.125 135.116  61.281  0.00  0.00    +0.292 HD
ENDBRANCH  36  37
ENDBRANCH  30  32
BRANCH  30  39
ATOM     39  O   UNL     1      88.947 136.640  54.908  0.00  0.00    -0.385 OA
ATOM     40  H   UNL     1      89.194 137.224  55.645  0.00  0.00    +0.210 HD
ENDBRANCH  30  39
ENDBRANCH  28  30
ENDBRANCH  24  28
ENDBRANCH  22  24
ENDBRANCH   1  21
BRANCH   1  42
ATOM     41  OXT UNL     1      95.280 137.596  52.484  0.00  0.00    -0.249 OA
ATOM     42  C   UNL     1      95.535 137.109  53.580  0.00  0.00    +0.328 C 
BRANCH  42  43
ATOM     43  O   UNL     1      96.804 137.079  54.046  0.00  0.00    -0.479 OA
ATOM     44  H   UNL     1      96.867 137.018  55.031  0.00  0.00    +0.295 HD
ENDBRANCH  42  43
ENDBRANCH   1  42
TORSDOF 14
ENDMDL
MODEL 9
REMARK VINA RESULT:     0.006     10.822     14.576
REMARK INTER + INTRA:          -3.560
REMARK INTER:                   0.000
REMARK INTRA:                  -3.560
REMARK UNBOUND:                -3.570
REMARK  Name = 456557
REMARK  15 active torsions:
REMARK  status: ('A' for Active; 'I' for Inactive)
REMARK    1  A    between atoms: O_2  and  C_17
REMARK    2  A    between atoms: O_3  and  C_18
REMARK    3  A    between atoms: O_4  and  C_22
REMARK    4  A    between atoms: O_7  and  C_27
REMARK    5  A    between atoms: O_10  and  C_35
REMARK    6  A    between atoms: N_11  and  C_19
REMARK    7  A    between atoms: N_12  and  CA_20
REMARK    8  A    between atoms: N_13  and  CA_21
REMARK    9  A    between atoms: C_16  and  CA_20
REMARK   10  A    between atoms: CA_20  and  C_22
REMARK   11  A    between atoms: CA_21  and  C_23
REMARK   12  A    between atoms: CA_21  and  C_24
REMARK   13  A    between atoms: C_23  and  C_27
REMARK   14  A    between atoms: C_23  and  C_28
REMARK   15  A    between atoms: C_27  and  C_30
REMARK                            x       y       z     vdW  Elec       q    Type
REMARK                         _______ _______ _______ _____ _____    ______ ____
ROOT
ATOM      1  CA  UNL     1      88.797 135.939  60.626  0.00  0.00    +0.213 C 
ENDROOT
BRANCH   1   3
ATOM      2  O   UNL     1      86.978 136.012  58.952  0.00  0.00    -0.345 OA
ATOM      3  C   UNL     1      88.256 136.601  59.335  0.00  0.00    +0.183 C 
ATOM      4  C   UNL     1      87.969 138.097  59.477  0.00  0.00    +0.178 C 
ATOM      5  C   UNL     1      86.513 138.137  59.930  0.00  0.00    +0.195 C 
ATOM      6  C   UNL     1      85.934 137.003  59.083  0.00  0.00    +0.255 C 
BRANCH   6   9
ATOM      7  O   UNL     1      83.303 138.005  58.708  0.00  0.00    -0.246 OA
ATOM      8  O   UNL     1      81.587 135.057  61.672  0.00  0.00    -0.268 OA
ATOM      9  N   UNL     1      84.702 136.366  59.560  0.00  0.00    -0.271 N 
ATOM     10  N   UNL     1      82.417 136.425  60.049  0.00  0.00    -0.275 N 
ATOM     11  C   UNL     1      83.474 136.985  59.378  0.00  0.00    +0.331 A 
ATOM     12  C   UNL     1      84.799 135.160  60.233  0.00  0.00    +0.098 A 
ATOM     13  C   UNL     1      83.762 134.628  60.886  0.00  0.00    +0.088 A 
ATOM     14  C   UNL     1      82.494 135.371  60.914  0.00  0.00    +0.254 A 
ATOM     15  H   UNL     1      81.553 136.944  60.055  0.00  0.00    +0.173 HD
ENDBRANCH   6   9
BRANCH   4  16
ATOM     16  O   UNL     1      87.997 138.776  58.198  0.00  0.00    -0.386 OA
ATOM     17  H   UNL     1      88.572 139.562  58.270  0.00  0.00    +0.210 HD
ENDBRANCH   4  16
BRANCH   5  18
ATOM     18  O   UNL     1      85.929 139.404  59.624  0.00  0.00    -0.385 OA
ATOM     19  H   UNL     1      84.990 139.340  59.913  0.00  0.00    +0.210 HD
ENDBRANCH   5  18
ENDBRANCH   1   3
BRANCH   1  21
ATOM     20  O   UNL     1      88.179 136.159  63.431  0.00  0.00    -0.274 OA
ATOM     21  N   UNL     1      89.409 136.835  61.627  0.00  0.00    -0.299 N 
ATOM     22  C   UNL     1      88.943 136.967  62.922  0.00  0.00    +0.231 C 
ATOM     23  H   UNL     1      89.948 137.638  61.308  0.00  0.00    +0.150 HD
BRANCH  22  24
ATOM     24  CA  UNL     1      89.428 138.253  63.666  0.00  0.00    +0.143 C 
BRANCH  24  25
ATOM     25  N   UNL     1      90.849 138.492  63.277  0.00  0.00    -0.320 NA
ATOM     26  H1  UNL     1      91.446 138.238  64.067  0.00  0.00    +0.119 HD
ATOM     27  H2  UNL     1      91.088 137.811  62.553  0.00  0.00    +0.119 HD
ENDBRANCH  24  25
BRANCH  24  28
ATOM     28  C   UNL     1      88.545 139.495  63.351  0.00  0.00    +0.046 C 
ATOM     29  C   UNL     1      89.346 140.818  63.310  0.00  0.00    +0.012 C 
BRANCH  28  30
ATOM     30  C   UNL     1      87.301 139.597  64.283  0.00  0.00    +0.168 C 
BRANCH  30  32
ATOM     31  N   UNL     1      85.369 140.616  63.103  0.00  0.00    -0.254 NA
ATOM     32  C   UNL     1      85.936 139.494  63.617  0.00  0.00    +0.070 A 
ATOM     33  C   UNL     1      85.325 138.243  63.499  0.00  0.00    +0.029 A 
ATOM     34  C   UNL     1      84.111 138.138  62.823  0.00  0.00    +0.049 A 
ATOM     35  C   UNL     1      84.199 140.483  62.441  0.00  0.00    +0.156 A 
ATOM     36  C   UNL     1      83.546 139.275  62.274  0.00  0.00    +0.135 A 
BRANCH  36  37
ATOM     37  O   UNL     1      82.380 139.158  61.582  0.00  0.00    -0.505 OA
ATOM     38  H   UNL     1      81.647 139.111  62.218  0.00  0.00    +0.292 HD
ENDBRANCH  36  37
ENDBRANCH  30  32
BRANCH  30  39
ATOM     39  O   UNL     1      87.385 138.589  65.301  0.00  0.00    -0.385 OA
ATOM     40  H   UNL     1      87.812 139.004  66.070  0.00  0.00    +0.210 HD
ENDBRANCH  30  39
ENDBRANCH  28  30
ENDBRANCH  24  28
ENDBRANCH  22  24
ENDBRANCH   1  21
BRANCH   1  42
ATOM     41  OXT UNL     1      90.762 134.503  60.957  0.00  0.00    -0.249 OA
ATOM     42  C   UNL     1      89.822 134.849  60.252  0.00  0.00    +0.328 C 
BRANCH  42  43
ATOM     43  O   UNL     1      89.597 134.257  59.057  0.00  0.00    -0.479 OA
ATOM     44  H   UNL     1      90.303 134.429  58.386  0.00  0.00    +0.295 HD
ENDBRANCH  42  43
ENDBRANCH   1  42
TORSDOF 14
ENDMDL
