MODEL 1
REMARK VINA RESULT:     0.000      0.000      0.000
REMARK INTER + INTRA:          -3.639
REMARK INTER:                   0.000
REMARK INTRA:                  -3.639
REMARK UNBOUND:                -3.639
REMARK  Name = 456557
REMARK  15 active torsions:
REMARK  status: ('A' for Active; 'I' for Inactive)
REMARK    1  A    between atoms: O_2  and  C_17
REMARK    2  A    between atoms: O_3  and  C_18
REMARK    3  A    between atoms: O_4  and  C_22
REMARK    4  A    between atoms: O_7  and  C_27
REMARK    5  A    between atoms: O_10  and  C_35
REMARK    6  A    between atoms: N_11  and  C_19
REMARK    7  A    between atoms: N_12  and  CA_20
REMARK    8  A    between atoms: N_13  and  CA_21
REMARK    9  A    between atoms: C_16  and  CA_20
REMARK   10  A    between atoms: CA_20  and  C_22
REMARK   11  A    between atoms: CA_21  and  C_23
REMARK   12  A    between atoms: CA_21  and  C_24
REMARK   13  A    between atoms: C_23  and  C_27
REMARK   14  A    between atoms: C_23  and  C_28
REMARK   15  A    between atoms: C_27  and  C_30
REMARK                            x       y       z     vdW  Elec       q    Type
REMARK                         _______ _______ _______ _____ _____    ______ ____
ROOT
ATOM      1  CA  UNL     1      90.729 134.909  58.164  0.00  0.00    +0.213 C 
ENDROOT
BRANCH   1   3
ATOM      2  O   UNL     1      92.597 133.982  56.843  0.00  0.00    -0.345 OA
ATOM      3  C   UNL     1      91.490 133.634  57.717  0.00  0.00    +0.183 C 
ATOM      4  C   UNL     1      92.121 132.829  58.862  0.00  0.00    +0.178 C 
ATOM      5  C   UNL     1      93.531 133.401  58.962  0.00  0.00    +0.195 C 
ATOM      6  C   UNL     1      93.833 133.598  57.472  0.00  0.00    +0.255 C 
BRANCH   6   9
ATOM      7  O   UNL     1      96.596 133.160  57.586  0.00  0.00    -0.246 OA
ATOM      8  O   UNL     1      97.569 137.479  57.114  0.00  0.00    -0.268 OA
ATOM      9  N   UNL     1      94.841 134.590  57.109  0.00  0.00    -0.271 N 
ATOM     10  N   UNL     1      97.071 135.267  56.931  0.00  0.00    -0.275 N 
ATOM     11  C   UNL     1      96.185 134.256  57.200  0.00  0.00    +0.331 A 
ATOM     12  C   UNL     1      94.438 135.892  56.884  0.00  0.00    +0.098 A 
ATOM     13  C   UNL     1      95.314 136.896  56.803  0.00  0.00    +0.088 A 
ATOM     14  C   UNL     1      96.743 136.589  56.948  0.00  0.00    +0.254 A 
ATOM     15  H   UNL     1      98.046 135.066  57.090  0.00  0.00    +0.173 HD
ENDBRANCH   6   9
BRANCH   4  16
ATOM     16  O   UNL     1      92.301 131.437  58.499  0.00  0.00    -0.386 OA
ATOM     17  H   UNL     1      92.986 131.053  59.078  0.00  0.00    +0.210 HD
ENDBRANCH   4  16
BRANCH   5  18
ATOM     18  O   UNL     1      94.414 132.467  59.594  0.00  0.00    -0.385 OA
ATOM     19  H   UNL     1      94.024 132.314  60.487  0.00  0.00    +0.210 HD
ENDBRANCH   5  18
ENDBRANCH   1   3
BRANCH   1  21
ATOM     20  O   UNL     1      91.366 136.977  60.074  0.00  0.00    -0.274 OA
ATOM     21  N   UNL     1      90.332 135.011  59.580  0.00  0.00    -0.299 N 
ATOM     22  C   UNL     1      90.822 135.948  60.456  0.00  0.00    +0.231 C 
ATOM     23  H   UNL     1      90.039 134.150  60.049  0.00  0.00    +0.150 HD
BRANCH  22  24
ATOM     24  CA  UNL     1      90.646 135.625  61.963  0.00  0.00    +0.143 C 
BRANCH  24  25
ATOM     25  N   UNL     1      89.334 134.939  62.141  0.00  0.00    -0.320 NA
ATOM     26  H1  UNL     1      89.177 134.306  61.355  0.00  0.00    +0.119 HD
ATOM     27  H2  UNL     1      89.401 134.329  62.957  0.00  0.00    +0.119 HD
ENDBRANCH  24  25
BRANCH  24  28
ATOM     28  C   UNL     1      91.819 134.779  62.523  0.00  0.00    +0.046 C 
ATOM     29  C   UNL     1      91.345 133.766  63.588  0.00  0.00    +0.012 C 
BRANCH  28  30
ATOM     30  C   UNL     1      93.033 135.621  63.027  0.00  0.00    +0.168 C 
BRANCH  30  32
ATOM     31  N   UNL     1      95.168 134.447  62.641  0.00  0.00    -0.254 NA
ATOM     32  C   UNL     1      94.352 135.472  62.276  0.00  0.00    +0.070 A 
ATOM     33  C   UNL     1      94.630 136.269  61.163  0.00  0.00    +0.029 A 
ATOM     34  C   UNL     1      95.794 136.051  60.431  0.00  0.00    +0.049 A 
ATOM     35  C   UNL     1      96.287 134.247  61.901  0.00  0.00    +0.156 A 
ATOM     36  C   UNL     1      96.630 135.014  60.799  0.00  0.00    +0.135 A 
BRANCH  36  37
ATOM     37  O   UNL     1      97.742 134.785  60.048  0.00  0.00    -0.505 OA
ATOM     38  H   UNL     1      98.309 134.144  60.508  0.00  0.00    +0.292 HD
ENDBRANCH  36  37
ENDBRANCH  30  32
BRANCH  30  39
ATOM     39  O   UNL     1      92.672 137.014  62.971  0.00  0.00    -0.385 OA
ATOM     40  H   UNL     1      93.309 137.469  63.556  0.00  0.00    +0.210 HD
ENDBRANCH  30  39
ENDBRANCH  28  30
ENDBRANCH  24  28
ENDBRANCH  22  24
ENDBRANCH   1  21
BRANCH   1  42
ATOM     41  OXT UNL     1      88.407 135.534  57.709  0.00  0.00    -0.249 OA
ATOM     42  C   UNL     1      89.447 135.014  57.322  0.00  0.00    +0.328 C 
BRANCH  42  43
ATOM     43  O   UNL     1      89.572 134.485  56.080  0.00  0.00    -0.479 OA
ATOM     44  H   UNL     1      89.697 133.506  56.084  0.00  0.00    +0.295 HD
ENDBRANCH  42  43
ENDBRANCH   1  42
TORSDOF 14
ENDMDL
MODEL 2
REMARK VINA RESULT:     0.002      6.172      8.388
REMARK INTER + INTRA:          -3.636
REMARK INTER:                   0.000
REMARK INTRA:                  -3.636
REMARK UNBOUND:                -3.639
REMARK  Name = 456557
REMARK  15 active torsions:
REMARK  status: ('A' for Active; 'I' for Inactive)
REMARK    1  A    between atoms: O_2  and  C_17
REMARK    2  A    between atoms: O_3  and  C_18
REMARK    3  A    between atoms: O_4  and  C_22
REMARK    4  A    between atoms: O_7  and  C_27
REMARK    5  A    between atoms: O_10  and  C_35
REMARK    6  A    between atoms: N_11  and  C_19
REMARK    7  A    between atoms: N_12  and  CA_20
REMARK    8  A    between atoms: N_13  and  CA_21
REMARK    9  A    between atoms: C_16  and  CA_20
REMARK   10  A    between atoms: CA_20  and  C_22
REMARK   11  A    between atoms: CA_21  and  C_23
REMARK   12  A    between atoms: CA_21  and  C_24
REMARK   13  A    between atoms: C_23  and  C_27
REMARK   14  A    between atoms: C_23  and  C_28
REMARK   15  A    between atoms: C_27  and  C_30
REMARK                            x       y       z     vdW  Elec       q    Type
REMARK                         _______ _______ _______ _____ _____    ______ ____
ROOT
ATOM      1  CA  UNL     1      92.667 133.364  66.005  0.00  0.00    +0.213 C 
ENDROOT
BRANCH   1   3
ATOM      2  O   UNL     1      94.179 134.973  64.901  0.00  0.00    -0.345 OA
ATOM      3  C   UNL     1      93.467 133.719  64.725  0.00  0.00    +0.183 C 
ATOM      4  C   UNL     1      94.546 132.698  64.339  0.00  0.00    +0.178 C 
ATOM      5  C   UNL     1      95.798 133.222  65.034  0.00  0.00    +0.195 C 
ATOM      6  C   UNL     1      95.595 134.727  64.821  0.00  0.00    +0.255 C 
BRANCH   6   9
ATOM      7  O   UNL     1      98.294 135.456  64.671  0.00  0.00    -0.246 OA
ATOM      8  O   UNL     1      98.309 137.259  68.742  0.00  0.00    -0.268 OA
ATOM      9  N   UNL     1      96.256 135.640  65.751  0.00  0.00    -0.271 N 
ATOM     10  N   UNL     1      98.173 136.721  66.536  0.00  0.00    -0.275 N 
ATOM     11  C   UNL     1      97.601 135.932  65.573  0.00  0.00    +0.331 A 
ATOM     12  C   UNL     1      95.583 136.022  66.894  0.00  0.00    +0.098 A 
ATOM     13  C   UNL     1      96.203 136.636  67.905  0.00  0.00    +0.088 A 
ATOM     14  C   UNL     1      97.640 136.914  67.775  0.00  0.00    +0.254 A 
ATOM     15  H   UNL     1      99.170 136.860  66.473  0.00  0.00    +0.173 HD
ENDBRANCH   6   9
BRANCH   4  16
ATOM     16  O   UNL     1      94.848 132.751  62.922  0.00  0.00    -0.386 OA
ATOM     17  H   UNL     1      95.799 132.568  62.801  0.00  0.00    +0.210 HD
ENDBRANCH   4  16
BRANCH   5  18
ATOM     18  O   UNL     1      96.979 132.721  64.400  0.00  0.00    -0.385 OA
ATOM     19  H   UNL     1      96.661 132.302  63.566  0.00  0.00    +0.210 HD
ENDBRANCH   5  18
ENDBRANCH   1   3
BRANCH   1  21
ATOM     20  O   UNL     1      93.484 132.346  68.578  0.00  0.00    -0.274 OA
ATOM     21  N   UNL     1      92.706 131.967  66.473  0.00  0.00    -0.299 N 
ATOM     22  C   UNL     1      93.269 131.564  67.660  0.00  0.00    +0.231 C 
ATOM     23  H   UNL     1      92.723 131.233  65.762  0.00  0.00    +0.150 HD
BRANCH  22  24
ATOM     24  CA  UNL     1      93.616 130.057  67.768  0.00  0.00    +0.143 C 
BRANCH  24  25
ATOM     25  N   UNL     1      92.560 129.284  67.053  0.00  0.00    -0.320 NA
ATOM     26  H1  UNL     1      92.983 128.783  66.270  0.00  0.00    +0.119 HD
ATOM     27  H2  UNL     1      92.222 128.550  67.678  0.00  0.00    +0.119 HD
ENDBRANCH  24  25
BRANCH  24  28
ATOM     28  C   UNL     1      95.032 129.740  67.220  0.00  0.00    +0.046 C 
ATOM     29  C   UNL     1      95.087 128.366  66.517  0.00  0.00    +0.012 C 
BRANCH  28  30
ATOM     30  C   UNL     1      96.176 129.897  68.271  0.00  0.00    +0.168 C 
BRANCH  30  32
ATOM     31  N   UNL     1      98.264 130.687  67.223  0.00  0.00    -0.254 NA
ATOM     32  C   UNL     1      97.210 130.990  68.027  0.00  0.00    +0.070 A 
ATOM     33  C   UNL     1      96.994 132.289  68.493  0.00  0.00    +0.029 A 
ATOM     34  C   UNL     1      97.901 133.296  68.175  0.00  0.00    +0.049 A 
ATOM     35  C   UNL     1      99.123 131.691  66.917  0.00  0.00    +0.156 A 
ATOM     36  C   UNL     1      98.977 132.995  67.362  0.00  0.00    +0.135 A 
BRANCH  36  37
ATOM     37  O   UNL     1      99.831 133.999  67.024  0.00  0.00    -0.505 OA
ATOM     38  H   UNL     1     100.252 134.342  67.831  0.00  0.00    +0.292 HD
ENDBRANCH  36  37
ENDBRANCH  30  32
BRANCH  30  39
ATOM     39  O   UNL     1      95.578 130.161  69.554  0.00  0.00    -0.385 OA
ATOM     40  H   UNL     1      94.672 129.799  69.495  0.00  0.00    +0.210 HD
ENDBRANCH  30  39
ENDBRANCH  28  30
ENDBRANCH  24  28
ENDBRANCH  22  24
ENDBRANCH   1  21
BRANCH   1  42
ATOM     41  OXT UNL     1      90.245 133.155  66.288  0.00  0.00    -0.249 OA
ATOM     42  C   UNL     1      91.192 133.720  65.753  0.00  0.00    +0.328 C 
BRANCH  42  43
ATOM     43  O   UNL     1      91.025 134.745  64.882  0.00  0.00    -0.479 OA
ATOM     44  H   UNL     1      90.996 134.455  63.940  0.00  0.00    +0.295 HD
ENDBRANCH  42  43
ENDBRANCH   1  42
TORSDOF 14
ENDMDL
MODEL 3
REMARK VINA RESULT:     0.002      7.290     10.321
REMARK INTER + INTRA:          -3.636
REMARK INTER:                   0.000
REMARK INTRA:                  -3.636
REMARK UNBOUND:                -3.639
REMARK  Name = 456557
REMARK  15 active torsions:
REMARK  status: ('A' for Active; 'I' for Inactive)
REMARK    1  A    between atoms: O_2  and  C_17
REMARK    2  A    between atoms: O_3  and  C_18
REMARK    3  A    between atoms: O_4  and  C_22
REMARK    4  A    between atoms: O_7  and  C_27
REMARK    5  A    between atoms: O_10  and  C_35
REMARK    6  A    between atoms: N_11  and  C_19
REMARK    7  A    between atoms: N_12  and  CA_20
REMARK    8  A    between atoms: N_13  and  CA_21
REMARK    9  A    between atoms: C_16  and  CA_20
REMARK   10  A    between atoms: CA_20  and  C_22
REMARK   11  A    between atoms: CA_21  and  C_23
REMARK   12  A    between atoms: CA_21  and  C_24
REMARK   13  A    between atoms: C_23  and  C_27
REMARK   14  A    between atoms: C_23  and  C_28
REMARK   15  A    between atoms: C_27  and  C_30
REMARK                            x       y       z     vdW  Elec       q    Type
REMARK                         _______ _______ _______ _____ _____    ______ ____
ROOT
ATOM      1  CA  UNL     1      93.291 130.434  66.279  0.00  0.00    +0.213 C 
ENDROOT
BRANCH   1   3
ATOM      2  O   UNL     1      95.141 129.917  67.829  0.00  0.00    -0.345 OA
ATOM      3  C   UNL     1      94.614 130.923  66.924  0.00  0.00    +0.183 C 
ATOM      4  C   UNL     1      95.749 131.200  65.929  0.00  0.00    +0.178 C 
ATOM      5  C   UNL     1      96.498 129.873  65.864  0.00  0.00    +0.195 C 
ATOM      6  C   UNL     1      96.417 129.463  67.340  0.00  0.00    +0.255 C 
BRANCH   6   9
ATOM      7  O   UNL     1      98.839 128.066  67.474  0.00  0.00    -0.246 OA
ATOM      8  O   UNL     1      96.847 124.084  67.514  0.00  0.00    -0.268 OA
ATOM      9  N   UNL     1      96.533 128.043  67.657  0.00  0.00    -0.271 N 
ATOM     10  N   UNL     1      97.813 126.105  67.914  0.00  0.00    -0.275 N 
ATOM     11  C   UNL     1      97.790 127.458  67.701  0.00  0.00    +0.331 A 
ATOM     12  C   UNL     1      95.383 127.278  67.701  0.00  0.00    +0.098 A 
ATOM     13  C   UNL     1      95.426 125.944  67.728  0.00  0.00    +0.088 A 
ATOM     14  C   UNL     1      96.740 125.287  67.721  0.00  0.00    +0.254 A 
ATOM     15  H   UNL     1      98.712 125.652  67.849  0.00  0.00    +0.173 HD
ENDBRANCH   6   9
BRANCH   4  16
ATOM     16  O   UNL     1      96.706 132.150  66.463  0.00  0.00    -0.386 OA
ATOM     17  H   UNL     1      96.328 132.549  67.269  0.00  0.00    +0.210 HD
ENDBRANCH   4  16
BRANCH   5  18
ATOM     18  O   UNL     1      97.841 130.069  65.410  0.00  0.00    -0.385 OA
ATOM     19  H   UNL     1      98.290 130.548  66.146  0.00  0.00    +0.210 HD
ENDBRANCH   5  18
ENDBRANCH   1   3
BRANCH   1  21
ATOM     20  O   UNL     1      92.738 128.518  64.193  0.00  0.00    -0.274 OA
ATOM     21  N   UNL     1      93.103 130.670  64.836  0.00  0.00    -0.299 N 
ATOM     22  C   UNL     1      93.010 129.675  63.894  0.00  0.00    +0.231 C 
ATOM     23  H   UNL     1      93.475 131.542  64.450  0.00  0.00    +0.150 HD
BRANCH  22  24
ATOM     24  CA  UNL     1      93.268 130.102  62.427  0.00  0.00    +0.143 C 
BRANCH  24  25
ATOM     25  N   UNL     1      92.704 131.470  62.235  0.00  0.00    -0.320 NA
ATOM     26  H1  UNL     1      93.470 132.136  62.119  0.00  0.00    +0.119 HD
ATOM     27  H2  UNL     1      92.207 131.489  61.343  0.00  0.00    +0.119 HD
ENDBRANCH  24  25
BRANCH  24  28
ATOM     28  C   UNL     1      94.773 130.044  62.054  0.00  0.00    +0.046 C 
ATOM     29  C   UNL     1      95.174 131.176  61.083  0.00  0.00    +0.012 C 
BRANCH  28  30
ATOM     30  C   UNL     1      95.253 128.648  61.545  0.00  0.00    +0.168 C 
BRANCH  30  32
ATOM     31  N   UNL     1      97.582 128.193  62.215  0.00  0.00    -0.254 NA
ATOM     32  C   UNL     1      96.268 127.898  62.401  0.00  0.00    +0.070 A 
ATOM     33  C   UNL     1      95.843 127.057  63.432  0.00  0.00    +0.029 A 
ATOM     34  C   UNL     1      96.784 126.459  64.266  0.00  0.00    +0.049 A 
ATOM     35  C   UNL     1      98.475 127.608  63.052  0.00  0.00    +0.156 A 
ATOM     36  C   UNL     1      98.122 126.750  64.081  0.00  0.00    +0.135 A 
BRANCH  36  37
ATOM     37  O   UNL     1      99.027 126.192  64.931  0.00  0.00    -0.505 OA
ATOM     38  H   UNL     1      99.305 125.331  64.577  0.00  0.00    +0.292 HD
ENDBRANCH  36  37
ENDBRANCH  30  32
BRANCH  30  39
ATOM     39  O   UNL     1      94.101 127.795  61.412  0.00  0.00    -0.385 OA
ATOM     40  H   UNL     1      94.014 127.343  62.275  0.00  0.00    +0.210 HD
ENDBRANCH  30  39
ENDBRANCH  28  30
ENDBRANCH  24  28
ENDBRANCH  22  24
ENDBRANCH   1  21
BRANCH   1  42
ATOM     41  OXT UNL     1      91.036 131.359  66.502  0.00  0.00    -0.249 OA
ATOM     42  C   UNL     1      92.127 131.122  67.010  0.00  0.00    +0.328 C 
BRANCH  42  43
ATOM     43  O   UNL     1      92.408 131.439  68.297  0.00  0.00    -0.479 OA
ATOM     44  H   UNL     1      91.721 132.008  68.717  0.00  0.00    +0.295 HD
ENDBRANCH  42  43
ENDBRANCH   1  42
TORSDOF 14
ENDMDL
MODEL 4
REMARK VINA RESULT:     0.003      8.627     11.382
REMARK INTER + INTRA:          -3.634
REMARK INTER:                   0.000
REMARK INTRA:                  -3.634
REMARK UNBOUND:                -3.639
REMARK  Name = 456557
REMARK  15 active torsions:
REMARK  status: ('A' for Active; 'I' for Inactive)
REMARK    1  A    between atoms: O_2  and  C_17
REMARK    2  A    between atoms: O_3  and  C_18
REMARK    3  A    between atoms: O_4  and  C_22
REMARK    4  A    between atoms: O_7  and  C_27
REMARK    5  A    between atoms: O_10  and  C_35
REMARK    6  A    between atoms: N_11  and  C_19
REMARK    7  A    between atoms: N_12  and  CA_20
REMARK    8  A    between atoms: N_13  and  CA_21
REMARK    9  A    between atoms: C_16  and  CA_20
REMARK   10  A    between atoms: CA_20  and  C_22
REMARK   11  A    between atoms: CA_21  and  C_23
REMARK   12  A    between atoms: CA_21  and  C_24
REMARK   13  A    between atoms: C_23  and  C_27
REMARK   14  A    between atoms: C_23  and  C_28
REMARK   15  A    between atoms: C_27  and  C_30
REMARK                            x       y       z     vdW  Elec       q    Type
REMARK                         _______ _______ _______ _____ _____    ______ ____
ROOT
ATOM      1  CA  UNL     1      91.616 144.496  64.815  0.00  0.00    +0.213 C 
ENDROOT
BRANCH   1   3
ATOM      2  O   UNL     1      91.885 143.403  67.011  0.00  0.00    -0.345 OA
ATOM      3  C   UNL     1      92.059 144.653  66.293  0.00  0.00    +0.183 C 
ATOM      4  C   UNL     1      93.537 145.022  66.484  0.00  0.00    +0.178 C 
ATOM      5  C   UNL     1      94.226 143.669  66.623  0.00  0.00    +0.195 C 
ATOM      6  C   UNL     1      93.170 142.929  67.454  0.00  0.00    +0.255 C 
BRANCH   6   9
ATOM      7  O   UNL     1      94.914 141.259  68.870  0.00  0.00    -0.246 OA
ATOM      8  O   UNL     1      93.814 137.655  66.499  0.00  0.00    -0.268 OA
ATOM      9  N   UNL     1      93.152 141.471  67.386  0.00  0.00    -0.271 N 
ATOM     10  N   UNL     1      94.047 139.388  67.954  0.00  0.00    -0.275 N 
ATOM     11  C   UNL     1      94.063 140.746  68.140  0.00  0.00    +0.331 A 
ATOM     12  C   UNL     1      92.371 140.862  66.423  0.00  0.00    +0.098 A 
ATOM     13  C   UNL     1      92.497 139.566  66.130  0.00  0.00    +0.088 A 
ATOM     14  C   UNL     1      93.490 138.777  66.871  0.00  0.00    +0.254 A 
ATOM     15  H   UNL     1      94.768 138.859  68.419  0.00  0.00    +0.173 HD
ENDBRANCH   6   9
BRANCH   4  16
ATOM     16  O   UNL     1      93.759 145.693  67.750  0.00  0.00    -0.386 OA
ATOM     17  H   UNL     1      94.720 145.719  67.921  0.00  0.00    +0.210 HD
ENDBRANCH   4  16
BRANCH   5  18
ATOM     18  O   UNL     1      95.479 143.804  67.302  0.00  0.00    -0.385 OA
ATOM     19  H   UNL     1      96.065 144.273  66.661  0.00  0.00    +0.210 HD
ENDBRANCH   5  18
ENDBRANCH   1   3
BRANCH   1  21
ATOM     20  O   UNL     1      92.848 143.220  62.538  0.00  0.00    -0.274 OA
ATOM     21  N   UNL     1      92.473 145.094  63.775  0.00  0.00    -0.299 N 
ATOM     22  C   UNL     1      93.151 144.374  62.822  0.00  0.00    +0.231 C 
ATOM     23  H   UNL     1      92.931 145.981  63.996  0.00  0.00    +0.150 HD
BRANCH  22  24
ATOM     24  CA  UNL     1      94.325 145.107  62.124  0.00  0.00    +0.143 C 
BRANCH  24  25
ATOM     25  N   UNL     1      93.942 146.539  61.955  0.00  0.00    -0.320 NA
ATOM     26  H1  UNL     1      93.039 146.592  61.481  0.00  0.00    +0.119 HD
ATOM     27  H2  UNL     1      93.774 146.937  62.880  0.00  0.00    +0.119 HD
ENDBRANCH  24  25
BRANCH  24  28
ATOM     28  C   UNL     1      95.657 144.957  62.903  0.00  0.00    +0.046 C 
ATOM     29  C   UNL     1      96.527 146.230  62.816  0.00  0.00    +0.012 C 
BRANCH  28  30
ATOM     30  C   UNL     1      96.472 143.675  62.539  0.00  0.00    +0.168 C 
BRANCH  30  32
ATOM     31  N   UNL     1      97.694 142.796  64.492  0.00  0.00    -0.254 NA
ATOM     32  C   UNL     1      96.657 142.626  63.629  0.00  0.00    +0.070 A 
ATOM     33  C   UNL     1      95.706 141.619  63.814  0.00  0.00    +0.029 A 
ATOM     34  C   UNL     1      95.842 140.730  64.877  0.00  0.00    +0.049 A 
ATOM     35  C   UNL     1      97.792 141.925  65.527  0.00  0.00    +0.156 A 
ATOM     36  C   UNL     1      96.895 140.894  65.757  0.00  0.00    +0.135 A 
BRANCH  36  37
ATOM     37  O   UNL     1      96.989 140.044  66.815  0.00  0.00    -0.505 OA
ATOM     38  H   UNL     1      96.207 139.468  66.829  0.00  0.00    +0.292 HD
ENDBRANCH  36  37
ENDBRANCH  30  32
BRANCH  30  39
ATOM     39  O   UNL     1      95.817 143.024  61.433  0.00  0.00    -0.385 OA
ATOM     40  H   UNL     1      96.026 142.074  61.534  0.00  0.00    +0.210 HD
ENDBRANCH  30  39
ENDBRANCH  28  30
ENDBRANCH  24  28
ENDBRANCH  22  24
ENDBRANCH   1  21
BRANCH   1  42
ATOM     41  OXT UNL     1      89.781 145.603  63.632  0.00  0.00    -0.249 OA
ATOM     42  C   UNL     1      90.219 145.123  64.672  0.00  0.00    +0.328 C 
BRANCH  42  43
ATOM     43  O   UNL     1      89.490 145.085  65.814  0.00  0.00    -0.479 OA
ATOM     44  H   UNL     1      89.239 145.979  66.145  0.00  0.00    +0.295 HD
ENDBRANCH  42  43
ENDBRANCH   1  42
TORSDOF 14
ENDMDL
MODEL 5
REMARK VINA RESULT:     0.003     11.119     13.574
REMARK INTER + INTRA:          -3.634
REMARK INTER:                   0.000
REMARK INTRA:                  -3.634
REMARK UNBOUND:                -3.639
REMARK  Name = 456557
REMARK  15 active torsions:
REMARK  status: ('A' for Active; 'I' for Inactive)
REMARK    1  A    between atoms: O_2  and  C_17
REMARK    2  A    between atoms: O_3  and  C_18
REMARK    3  A    between atoms: O_4  and  C_22
REMARK    4  A    between atoms: O_7  and  C_27
REMARK    5  A    between atoms: O_10  and  C_35
REMARK    6  A    between atoms: N_11  and  C_19
REMARK    7  A    between atoms: N_12  and  CA_20
REMARK    8  A    between atoms: N_13  and  CA_21
REMARK    9  A    between atoms: C_16  and  CA_20
REMARK   10  A    between atoms: CA_20  and  C_22
REMARK   11  A    between atoms: CA_21  and  C_23
REMARK   12  A    between atoms: CA_21  and  C_24
REMARK   13  A    between atoms: C_23  and  C_27
REMARK   14  A    between atoms: C_23  and  C_28
REMARK   15  A    between atoms: C_27  and  C_30
REMARK                            x       y       z     vdW  Elec       q    Type
REMARK                         _______ _______ _______ _____ _____    ______ ____
ROOT
ATOM      1  CA  UNL     1      96.029 145.246  66.515  0.00  0.00    +0.213 C 
ENDROOT
BRANCH   1   3
ATOM      2  O   UNL     1      95.353 147.308  65.338  0.00  0.00    -0.345 OA
ATOM      3  C   UNL     1      95.569 146.721  66.649  0.00  0.00    +0.183 C 
ATOM      4  C   UNL     1      94.242 146.913  67.397  0.00  0.00    +0.178 C 
ATOM      5  C   UNL     1      93.200 146.892  66.284  0.00  0.00    +0.195 C 
ATOM      6  C   UNL     1      93.965 147.666  65.204  0.00  0.00    +0.255 C 
BRANCH   6   9
ATOM      7  O   UNL     1      91.755 148.855  63.963  0.00  0.00    -0.246 OA
ATOM      8  O   UNL     1      91.943 146.146  60.434  0.00  0.00    -0.268 OA
ATOM      9  N   UNL     1      93.584 147.446  63.812  0.00  0.00    -0.271 N 
ATOM     10  N   UNL     1      92.120 147.769  62.019  0.00  0.00    -0.275 N 
ATOM     11  C   UNL     1      92.469 148.097  63.303  0.00  0.00    +0.331 A 
ATOM     12  C   UNL     1      94.217 146.444  63.102  0.00  0.00    +0.098 A 
ATOM     13  C   UNL     1      93.754 146.014  61.926  0.00  0.00    +0.088 A 
ATOM     14  C   UNL     1      92.544 146.642  61.381  0.00  0.00    +0.254 A 
ATOM     15  H   UNL     1      91.257 148.158  61.672  0.00  0.00    +0.173 HD
ENDBRANCH   6   9
BRANCH   4  16
ATOM     16  O   UNL     1      94.146 148.237  67.982  0.00  0.00    -0.386 OA
ATOM     17  H   UNL     1      95.001 148.692  67.858  0.00  0.00    +0.210 HD
ENDBRANCH   4  16
BRANCH   5  18
ATOM     18  O   UNL     1      91.998 147.550  66.700  0.00  0.00    -0.385 OA
ATOM     19  H   UNL     1      91.276 147.096  66.206  0.00  0.00    +0.210 HD
ENDBRANCH   5  18
ENDBRANCH   1   3
BRANCH   1  21
ATOM     20  O   UNL     1      94.620 142.815  65.856  0.00  0.00    -0.274 OA
ATOM     21  N   UNL     1      95.427 144.254  67.423  0.00  0.00    -0.299 N 
ATOM     22  C   UNL     1      94.630 143.212  67.015  0.00  0.00    +0.231 C 
ATOM     23  H   UNL     1      95.217 144.556  68.378  0.00  0.00    +0.150 HD
BRANCH  22  24
ATOM     24  CA  UNL     1      93.742 142.567  68.109  0.00  0.00    +0.143 C 
BRANCH  24  25
ATOM     25  N   UNL     1      94.513 142.557  69.387  0.00  0.00    -0.320 NA
ATOM     26  H1  UNL     1      94.010 141.999  70.078  0.00  0.00    +0.119 HD
ATOM     27  H2  UNL     1      95.386 142.051  69.230  0.00  0.00    +0.119 HD
ENDBRANCH  24  25
BRANCH  24  28
ATOM     28  C   UNL     1      92.381 143.293  68.265  0.00  0.00    +0.046 C 
ATOM     29  C   UNL     1      91.903 143.320  69.734  0.00  0.00    +0.012 C 
BRANCH  28  30
ATOM     30  C   UNL     1      91.265 142.776  67.304  0.00  0.00    +0.168 C 
BRANCH  30  32
ATOM     31  N   UNL     1      89.746 144.595  66.621  0.00  0.00    -0.254 NA
ATOM     32  C   UNL     1      90.739 143.745  66.250  0.00  0.00    +0.070 A 
ATOM     33  C   UNL     1      91.364 143.846  65.004  0.00  0.00    +0.029 A 
ATOM     34  C   UNL     1      90.932 144.806  64.093  0.00  0.00    +0.049 A 
ATOM     35  C   UNL     1      89.356 145.530  65.719  0.00  0.00    +0.156 A 
ATOM     36  C   UNL     1      89.920 145.671  64.461  0.00  0.00    +0.135 A 
BRANCH  36  37
ATOM     37  O   UNL     1      89.539 146.632  63.575  0.00  0.00    -0.505 OA
ATOM     38  H   UNL     1      89.524 146.250  62.682  0.00  0.00    +0.292 HD
ENDBRANCH  36  37
ENDBRANCH  30  32
BRANCH  30  39
ATOM     39  O   UNL     1      91.771 141.624  66.602  0.00  0.00    -0.385 OA
ATOM     40  H   UNL     1      91.262 141.586  65.769  0.00  0.00    +0.210 HD
ENDBRANCH  30  39
ENDBRANCH  28  30
ENDBRANCH  24  28
ENDBRANCH  22  24
ENDBRANCH   1  21
BRANCH   1  42
ATOM     41  OXT UNL     1      98.157 144.233  67.174  0.00  0.00    -0.249 OA
ATOM     42  C   UNL     1      97.550 145.204  66.736  0.00  0.00    +0.328 C 
BRANCH  42  43
ATOM     43  O   UNL     1      98.179 146.351  66.382  0.00  0.00    -0.479 OA
ATOM     44  H   UNL     1      98.491 146.351  65.446  0.00  0.00    +0.295 HD
ENDBRANCH  42  43
ENDBRANCH   1  42
TORSDOF 14
ENDMDL
MODEL 6
REMARK VINA RESULT:     0.003      6.753     10.514
REMARK INTER + INTRA:          -3.634
REMARK INTER:                   0.000
REMARK INTRA:                  -3.634
REMARK UNBOUND:                -3.639
REMARK  Name = 456557
REMARK  15 active torsions:
REMARK  status: ('A' for Active; 'I' for Inactive)
REMARK    1  A    between atoms: O_2  and  C_17
REMARK    2  A    between atoms: O_3  and  C_18
REMARK    3  A    between atoms: O_4  and  C_22
REMARK    4  A    between atoms: O_7  and  C_27
REMARK    5  A    between atoms: O_10  and  C_35
REMARK    6  A    between atoms: N_11  and  C_19
REMARK    7  A    between atoms: N_12  and  CA_20
REMARK    8  A    between atoms: N_13  and  CA_21
REMARK    9  A    between atoms: C_16  and  CA_20
REMARK   10  A    between atoms: CA_20  and  C_22
REMARK   11  A    between atoms: CA_21  and  C_23
REMARK   12  A    between atoms: CA_21  and  C_24
REMARK   13  A    between atoms: C_23  and  C_27
REMARK   14  A    between atoms: C_23  and  C_28
REMARK   15  A    between atoms: C_27  and  C_30
REMARK                            x       y       z     vdW  Elec       q    Type
REMARK                         _______ _______ _______ _____ _____    ______ ____
ROOT
ATOM      1  CA  UNL     1      94.645 130.631  66.791  0.00  0.00    +0.213 C 
ENDROOT
BRANCH   1   3
ATOM      2  O   UNL     1      93.045 132.363  67.521  0.00  0.00    -0.345 OA
ATOM      3  C   UNL     1      93.765 131.175  67.946  0.00  0.00    +0.183 C 
ATOM      4  C   UNL     1      92.682 130.205  68.439  0.00  0.00    +0.178 C 
ATOM      5  C   UNL     1      91.465 130.574  67.597  0.00  0.00    +0.195 C 
ATOM      6  C   UNL     1      91.631 132.097  67.563  0.00  0.00    +0.255 C 
BRANCH   6   9
ATOM      7  O   UNL     1      88.914 132.764  67.434  0.00  0.00    -0.246 OA
ATOM      8  O   UNL     1      89.117 133.865  63.124  0.00  0.00    -0.268 OA
ATOM      9  N   UNL     1      91.011 132.824  66.457  0.00  0.00    -0.271 N 
ATOM     10  N   UNL     1      89.127 133.705  65.393  0.00  0.00    -0.275 N 
ATOM     11  C   UNL     1      89.653 133.104  66.506  0.00  0.00    +0.331 A 
ATOM     12  C   UNL     1      91.746 133.030  65.306  0.00  0.00    +0.098 A 
ATOM     13  C   UNL     1      91.178 133.449  64.173  0.00  0.00    +0.088 A 
ATOM     14  C   UNL     1      89.731 133.704  64.172  0.00  0.00    +0.254 A 
ATOM     15  H   UNL     1      88.126 133.823  65.375  0.00  0.00    +0.173 HD
ENDBRANCH   6   9
BRANCH   4  16
ATOM     16  O   UNL     1      92.296 130.488  69.808  0.00  0.00    -0.386 OA
ATOM     17  H   UNL     1      91.739 131.289  69.813  0.00  0.00    +0.210 HD
ENDBRANCH   4  16
BRANCH   5  18
ATOM     18  O   UNL     1      90.256 130.155  68.240  0.00  0.00    -0.385 OA
ATOM     19  H   UNL     1      89.820 129.553  67.592  0.00  0.00    +0.210 HD
ENDBRANCH   5  18
ENDBRANCH   1   3
BRANCH   1  21
ATOM     20  O   UNL     1      94.011 129.171  64.384  0.00  0.00    -0.274 OA
ATOM     21  N   UNL     1      94.658 129.174  66.566  0.00  0.00    -0.299 N 
ATOM     22  C   UNL     1      94.179 128.561  65.434  0.00  0.00    +0.231 C 
ATOM     23  H   UNL     1      94.607 128.570  67.390  0.00  0.00    +0.150 HD
BRANCH  22  24
ATOM     24  CA  UNL     1      93.863 127.049  65.563  0.00  0.00    +0.143 C 
BRANCH  24  25
ATOM     25  N   UNL     1      94.886 126.436  66.459  0.00  0.00    -0.320 NA
ATOM     26  H1  UNL     1      94.814 126.855  67.387  0.00  0.00    +0.119 HD
ATOM     27  H2  UNL     1      94.641 125.454  66.598  0.00  0.00    +0.119 HD
ENDBRANCH  24  25
BRANCH  24  28
ATOM     28  C   UNL     1      92.422 126.792  66.074  0.00  0.00    +0.046 C 
ATOM     29  C   UNL     1      92.346 125.554  66.995  0.00  0.00    +0.012 C 
BRANCH  28  30
ATOM     30  C   UNL     1      91.342 126.741  64.948  0.00  0.00    +0.168 C 
BRANCH  30  32
ATOM     31  N   UNL     1      89.181 127.640  65.725  0.00  0.00    -0.254 NA
ATOM     32  C   UNL     1      90.277 127.833  64.945  0.00  0.00    +0.070 A 
ATOM     33  C   UNL     1      90.501 129.041  64.281  0.00  0.00    +0.029 A 
ATOM     34  C   UNL     1      89.560 130.063  64.372  0.00  0.00    +0.049 A 
ATOM     35  C   UNL     1      88.288 128.658  65.809  0.00  0.00    +0.156 A 
ATOM     36  C   UNL     1      88.441 129.873  65.160  0.00  0.00    +0.135 A 
BRANCH  36  37
ATOM     37  O   UNL     1      87.551 130.897  65.275  0.00  0.00    -0.505 OA
ATOM     38  H   UNL     1      87.347 131.239  64.389  0.00  0.00    +0.292 HD
ENDBRANCH  36  37
ENDBRANCH  30  32
BRANCH  30  39
ATOM     39  O   UNL     1      92.013 126.803  63.675  0.00  0.00    -0.385 OA
ATOM     40  H   UNL     1      91.818 125.950  63.240  0.00  0.00    +0.210 HD
ENDBRANCH  30  39
ENDBRANCH  28  30
ENDBRANCH  24  28
ENDBRANCH  22  24
ENDBRANCH   1  21
BRANCH   1  42
ATOM     41  OXT UNL     1      97.083 130.443  66.681  0.00  0.00    -0.249 OA
ATOM     42  C   UNL     1      96.096 131.064  67.059  0.00  0.00    +0.328 C 
BRANCH  42  43
ATOM     43  O   UNL     1      96.194 132.227  67.749  0.00  0.00    -0.479 OA
ATOM     44  H   UNL     1      97.031 132.716  67.570  0.00  0.00    +0.295 HD
ENDBRANCH  42  43
ENDBRANCH   1  42
TORSDOF 14
ENDMDL
MODEL 7
REMARK VINA RESULT:     0.003     10.518     13.624
REMARK INTER + INTRA:          -3.634
REMARK INTER:                   0.000
REMARK INTRA:                  -3.634
REMARK UNBOUND:                -3.639
REMARK  Name = 456557
REMARK  15 active torsions:
REMARK  status: ('A' for Active; 'I' for Inactive)
REMARK    1  A    between atoms: O_2  and  C_17
REMARK    2  A    between atoms: O_3  and  C_18
REMARK    3  A    between atoms: O_4  and  C_22
REMARK    4  A    between atoms: O_7  and  C_27
REMARK    5  A    between atoms: O_10  and  C_35
REMARK    6  A    between atoms: N_11  and  C_19
REMARK    7  A    between atoms: N_12  and  CA_20
REMARK    8  A    between atoms: N_13  and  CA_21
REMARK    9  A    between atoms: C_16  and  CA_20
REMARK   10  A    between atoms: CA_20  and  C_22
REMARK   11  A    between atoms: CA_21  and  C_23
REMARK   12  A    between atoms: CA_21  and  C_24
REMARK   13  A    between atoms: C_23  and  C_27
REMARK   14  A    between atoms: C_23  and  C_28
REMARK   15  A    between atoms: C_27  and  C_30
REMARK                            x       y       z     vdW  Elec       q    Type
REMARK                         _______ _______ _______ _____ _____    ______ ____
ROOT
ATOM      1  CA  UNL     1      92.569 138.824  69.522  0.00  0.00    +0.213 C 
ENDROOT
BRANCH   1   3
ATOM      2  O   UNL     1      91.755 140.817  68.313  0.00  0.00    -0.345 OA
ATOM      3  C   UNL     1      92.702 139.716  68.260  0.00  0.00    +0.183 C 
ATOM      4  C   UNL     1      94.076 140.378  68.083  0.00  0.00    +0.178 C 
ATOM      5  C   UNL     1      93.914 141.724  68.781  0.00  0.00    +0.195 C 
ATOM      6  C   UNL     1      92.480 142.060  68.357  0.00  0.00    +0.255 C 
BRANCH   6   9
ATOM      7  O   UNL     1      92.752 144.846  68.289  0.00  0.00    -0.246 OA
ATOM      8  O   UNL     1      90.478 145.427  72.073  0.00  0.00    -0.268 OA
ATOM      9  N   UNL     1      91.722 142.984  69.197  0.00  0.00    -0.271 N 
ATOM     10  N   UNL     1      91.259 145.145  69.955  0.00  0.00    -0.275 N 
ATOM     11  C   UNL     1      91.938 144.348  69.071  0.00  0.00    +0.331 A 
ATOM     12  C   UNL     1      90.965 142.469  70.232  0.00  0.00    +0.098 A 
ATOM     13  C   UNL     1      90.459 143.249  71.189  0.00  0.00    +0.088 A 
ATOM     14  C   UNL     1      90.713 144.694  71.119  0.00  0.00    +0.254 A 
ATOM     15  H   UNL     1      91.482 146.129  69.940  0.00  0.00    +0.173 HD
ENDBRANCH   6   9
BRANCH   4  16
ATOM     16  O   UNL     1      94.339 140.699  66.694  0.00  0.00    -0.386 OA
ATOM     17  H   UNL     1      94.947 141.462  66.663  0.00  0.00    +0.210 HD
ENDBRANCH   4  16
BRANCH   5  18
ATOM     18  O   UNL     1      94.877 142.666  68.297  0.00  0.00    -0.385 OA
ATOM     19  H   UNL     1      95.497 142.805  69.051  0.00  0.00    +0.210 HD
ENDBRANCH   5  18
ENDBRANCH   1   3
BRANCH   1  21
ATOM     20  O   UNL     1      93.413 139.191  72.257  0.00  0.00    -0.274 OA
ATOM     21  N   UNL     1      93.810 138.367  70.173  0.00  0.00    -0.299 N 
ATOM     22  C   UNL     1      94.201 138.734  71.437  0.00  0.00    +0.231 C 
ATOM     23  H   UNL     1      94.603 138.141  69.567  0.00  0.00    +0.150 HD
BRANCH  22  24
ATOM     24  CA  UNL     1      95.703 138.534  71.768  0.00  0.00    +0.143 C 
BRANCH  24  25
ATOM     25  N   UNL     1      96.165 137.287  71.093  0.00  0.00    -0.320 NA
ATOM     26  H1  UNL     1      96.025 137.379  70.086  0.00  0.00    +0.119 HD
ATOM     27  H2  UNL     1      97.178 137.218  71.209  0.00  0.00    +0.119 HD
ENDBRANCH  24  25
BRANCH  24  28
ATOM     28  C   UNL     1      96.561 139.760  71.362  0.00  0.00    +0.046 C 
ATOM     29  C   UNL     1      97.960 139.345  70.854  0.00  0.00    +0.012 C 
BRANCH  28  30
ATOM     30  C   UNL     1      96.650 140.871  72.455  0.00  0.00    +0.168 C 
BRANCH  30  32
ATOM     31  N   UNL     1      96.786 143.119  71.450  0.00  0.00    -0.254 NA
ATOM     32  C   UNL     1      96.025 142.225  72.135  0.00  0.00    +0.070 A 
ATOM     33  C   UNL     1      94.676 142.466  72.408  0.00  0.00    +0.029 A 
ATOM     34  C   UNL     1      94.099 143.671  72.017  0.00  0.00    +0.049 A 
ATOM     35  C   UNL     1      96.193 144.278  71.069  0.00  0.00    +0.156 A 
ATOM     36  C   UNL     1      94.867 144.588  71.325  0.00  0.00    +0.135 A 
BRANCH  36  37
ATOM     37  O   UNL     1      94.277 145.743  70.912  0.00  0.00    -0.505 OA
ATOM     38  H   UNL     1      94.965 146.408  70.747  0.00  0.00    +0.292 HD
ENDBRANCH  36  37
ENDBRANCH  30  32
BRANCH  30  39
ATOM     39  O   UNL     1      96.009 140.383  73.649  0.00  0.00    -0.385 OA
ATOM     40  H   UNL     1      96.065 139.409  73.591  0.00  0.00    +0.210 HD
ENDBRANCH  30  39
ENDBRANCH  28  30
ENDBRANCH  24  28
ENDBRANCH  22  24
ENDBRANCH   1  21
BRANCH   1  42
ATOM     41  OXT UNL     1      91.889 136.478  69.676  0.00  0.00    -0.249 OA
ATOM     42  C   UNL     1      91.770 137.570  69.131  0.00  0.00    +0.328 C 
BRANCH  42  43
ATOM     43  O   UNL     1      90.891 137.782  68.121  0.00  0.00    -0.479 OA
ATOM     44  H   UNL     1      90.982 137.134  67.383  0.00  0.00    +0.295 HD
ENDBRANCH  42  43
ENDBRANCH   1  42
TORSDOF 14
ENDMDL
MODEL 8
REMARK VINA RESULT:     0.004      3.337      6.696
REMARK INTER + INTRA:          -3.633
REMARK INTER:                   0.000
REMARK INTRA:                  -3.633
REMARK UNBOUND:                -3.639
REMARK  Name = 456557
REMARK  15 active torsions:
REMARK  status: ('A' for Active; 'I' for Inactive)
REMARK    1  A    between atoms: O_2  and  C_17
REMARK    2  A    between atoms: O_3  and  C_18
REMARK    3  A    between atoms: O_4  and  C_22
REMARK    4  A    between atoms: O_7  and  C_27
REMARK    5  A    between atoms: O_10  and  C_35
REMARK    6  A    between atoms: N_11  and  C_19
REMARK    7  A    between atoms: N_12  and  CA_20
REMARK    8  A    between atoms: N_13  and  CA_21
REMARK    9  A    between atoms: C_16  and  CA_20
REMARK   10  A    between atoms: CA_20  and  C_22
REMARK   11  A    between atoms: CA_21  and  C_23
REMARK   12  A    between atoms: CA_21  and  C_24
REMARK   13  A    between atoms: C_23  and  C_27
REMARK   14  A    between atoms: C_23  and  C_28
REMARK   15  A    between atoms: C_27  and  C_30
REMARK                            x       y       z     vdW  Elec       q    Type
REMARK                         _______ _______ _______ _____ _____    ______ ____
ROOT
ATOM      1  CA  UNL     1      95.597 136.433  61.615  0.00  0.00    +0.213 C 
ENDROOT
BRANCH   1   3
ATOM      2  O   UNL     1      97.981 136.943  61.997  0.00  0.00    -0.345 OA
ATOM      3  C   UNL     1      96.856 137.186  61.112  0.00  0.00    +0.183 C 
ATOM      4  C   UNL     1      97.343 136.763  59.719  0.00  0.00    +0.178 C 
ATOM      5  C   UNL     1      98.357 135.663  60.016  0.00  0.00    +0.195 C 
ATOM      6  C   UNL     1      99.015 136.255  61.269  0.00  0.00    +0.255 C 
BRANCH   6   9
ATOM      7  O   UNL     1     101.574 135.185  60.888  0.00  0.00    -0.246 OA
ATOM      8  O   UNL     1     101.060 132.126  64.083  0.00  0.00    -0.268 OA
ATOM      9  N   UNL     1      99.669 135.332  62.193  0.00  0.00    -0.271 N 
ATOM     10  N   UNL     1     101.455 133.939  62.766  0.00  0.00    -0.275 N 
ATOM     11  C   UNL     1     100.945 134.872  61.902  0.00  0.00    +0.331 A 
ATOM     12  C   UNL     1      98.924 134.785  63.219  0.00  0.00    +0.098 A 
ATOM     13  C   UNL     1      99.369 133.753  63.939  0.00  0.00    +0.088 A 
ATOM     14  C   UNL     1     100.694 133.203  63.624  0.00  0.00    +0.254 A 
ATOM     15  H   UNL     1     102.338 133.523  62.513  0.00  0.00    +0.173 HD
ENDBRANCH   6   9
BRANCH   4  16
ATOM     16  O   UNL     1      98.103 137.817  59.077  0.00  0.00    -0.386 OA
ATOM     17  H   UNL     1      97.696 138.009  58.211  0.00  0.00    +0.210 HD
ENDBRANCH   4  16
BRANCH   5  18
ATOM     18  O   UNL     1      99.270 135.505  58.925  0.00  0.00    -0.385 OA
ATOM     19  H   UNL     1     100.132 135.278  59.346  0.00  0.00    +0.210 HD
ENDBRANCH   5  18
ENDBRANCH   1   3
BRANCH   1  21
ATOM     20  O   UNL     1      94.837 133.650  61.535  0.00  0.00    -0.274 OA
ATOM     21  N   UNL     1      94.772 135.731  60.615  0.00  0.00    -0.299 N 
ATOM     22  C   UNL     1      94.602 134.369  60.570  0.00  0.00    +0.231 C 
ATOM     23  H   UNL     1      94.673 136.169  59.696  0.00  0.00    +0.150 HD
BRANCH  22  24
ATOM     24  CA  UNL     1      94.095 133.792  59.224  0.00  0.00    +0.143 C 
BRANCH  24  25
ATOM     25  N   UNL     1      93.123 134.761  58.640  0.00  0.00    -0.320 NA
ATOM     26  H1  UNL     1      93.215 134.759  57.624  0.00  0.00    +0.119 HD
ATOM     27  H2  UNL     1      92.179 134.412  58.816  0.00  0.00    +0.119 HD
ENDBRANCH  24  25
BRANCH  24  28
ATOM     28  C   UNL     1      95.256 133.481  58.243  0.00  0.00    +0.046 C 
ATOM     29  C   UNL     1      94.865 133.761  56.775  0.00  0.00    +0.012 C 
BRANCH  28  30
ATOM     30  C   UNL     1      95.877 132.059  58.415  0.00  0.00    +0.168 C 
BRANCH  30  32
ATOM     31  N   UNL     1      98.295 132.064  57.930  0.00  0.00    -0.254 NA
ATOM     32  C   UNL     1      97.326 131.976  58.881  0.00  0.00    +0.070 A 
ATOM     33  C   UNL     1      97.635 131.961  60.243  0.00  0.00    +0.029 A 
ATOM     34  C   UNL     1      98.966 131.986  60.649  0.00  0.00    +0.049 A 
ATOM     35  C   UNL     1      99.582 132.102  58.355  0.00  0.00    +0.156 A 
ATOM     36  C   UNL     1      99.957 132.071  59.689  0.00  0.00    +0.135 A 
BRANCH  36  37
ATOM     37  O   UNL     1     101.252 132.138  60.103  0.00  0.00    -0.505 OA
ATOM     38  H   UNL     1     101.452 131.356  60.644  0.00  0.00    +0.292 HD
ENDBRANCH  36  37
ENDBRANCH  30  32
BRANCH  30  39
ATOM     39  O   UNL     1      95.084 131.333  59.373  0.00  0.00    -0.385 OA
ATOM     40  H   UNL     1      95.640 130.577  59.647  0.00  0.00    +0.210 HD
ENDBRANCH  30  39
ENDBRANCH  28  30
ENDBRANCH  24  28
ENDBRANCH  22  24
ENDBRANCH   1  21
BRANCH   1  42
ATOM     41  OXT UNL     1      93.470 137.343  62.416  0.00  0.00    -0.249 OA
ATOM     42  C   UNL     1      94.688 137.452  62.322  0.00  0.00    +0.328 C 
BRANCH  42  43
ATOM     43  O   UNL     1      95.364 138.497  62.860  0.00  0.00    -0.479 OA
ATOM     44  H   UNL     1      95.886 138.252  63.660  0.00  0.00    +0.295 HD
ENDBRANCH  42  43
ENDBRANCH   1  42
TORSDOF 14
ENDMDL
MODEL 9
REMARK VINA RESULT:     0.004      8.188     11.914
REMARK INTER + INTRA:          -3.632
REMARK INTER:                   0.000
REMARK INTRA:                  -3.632
REMARK UNBOUND:                -3.639
REMARK  Name = 456557
REMARK  15 active torsions:
REMARK  status: ('A' for Active; 'I' for Inactive)
REMARK    1  A    between atoms: O_2  and  C_17
REMARK    2  A    between atoms: O_3  and  C_18
REMARK    3  A    between atoms: O_4  and  C_22
REMARK    4  A    between atoms: O_7  and  C_27
REMARK    5  A    between atoms: O_10  and  C_35
REMARK    6  A    between atoms: N_11  and  C_19
REMARK    7  A    between atoms: N_12  and  CA_20
REMARK    8  A    between atoms: N_13  and  CA_21
REMARK    9  A    between atoms: C_16  and  CA_20
REMARK   10  A    between atoms: CA_20  and  C_22
REMARK   11  A    between atoms: CA_21  and  C_23
REMARK   12  A    between atoms: CA_21  and  C_24
REMARK   13  A    between atoms: C_23  and  C_27
REMARK   14  A    between atoms: C_23  and  C_28
REMARK   15  A    between atoms: C_27  and  C_30
REMARK                            x       y       z     vdW  Elec       q    Type
REMARK                         _______ _______ _______ _____ _____    ______ ____
ROOT
ATOM      1  CA  UNL     1      91.635 134.617  67.363  0.00  0.00    +0.213 C 
ENDROOT
BRANCH   1   3
ATOM      2  O   UNL     1      90.425 132.534  67.899  0.00  0.00    -0.345 OA
ATOM      3  C   UNL     1      90.274 133.968  67.725  0.00  0.00    +0.183 C 
ATOM      4  C   UNL     1      89.653 134.467  69.038  0.00  0.00    +0.178 C 
ATOM      5  C   UNL     1      90.180 133.483  70.077  0.00  0.00    +0.195 C 
ATOM      6  C   UNL     1      90.107 132.188  69.260  0.00  0.00    +0.255 C 
BRANCH   6   9
ATOM      7  O   UNL     1      89.591 130.436  71.382  0.00  0.00    -0.246 OA
ATOM      8  O   UNL     1      93.726 128.782  71.371  0.00  0.00    -0.268 OA
ATOM      9  N   UNL     1      90.984 131.088  69.653  0.00  0.00    -0.271 N 
ATOM     10  N   UNL     1      91.535 129.327  71.088  0.00  0.00    -0.275 N 
ATOM     11  C   UNL     1      90.620 130.279  70.720  0.00  0.00    +0.331 A 
ATOM     12  C   UNL     1      92.241 131.009  69.088  0.00  0.00    +0.098 A 
ATOM     13  C   UNL     1      93.184 130.199  69.576  0.00  0.00    +0.088 A 
ATOM     14  C   UNL     1      92.852 129.366  70.740  0.00  0.00    +0.254 A 
ATOM     15  H   UNL     1      91.328 128.800  71.921  0.00  0.00    +0.173 HD
ENDBRANCH   6   9
BRANCH   4  16
ATOM     16  O   UNL     1      88.214 134.295  69.046  0.00  0.00    -0.386 OA
ATOM     17  H   UNL     1      87.799 135.171  69.160  0.00  0.00    +0.210 HD
ENDBRANCH   4  16
BRANCH   5  18
ATOM     18  O   UNL     1      89.335 133.465  71.233  0.00  0.00    -0.385 OA
ATOM     19  H   UNL     1      88.418 133.544  70.878  0.00  0.00    +0.210 HD
ENDBRANCH   5  18
ENDBRANCH   1   3
BRANCH   1  21
ATOM     20  O   UNL     1      93.970 135.223  68.947  0.00  0.00    -0.274 OA
ATOM     21  N   UNL     1      91.992 135.881  68.033  0.00  0.00    -0.299 N 
ATOM     22  C   UNL     1      93.044 136.025  68.904  0.00  0.00    +0.231 C 
ATOM     23  H   UNL     1      91.237 136.545  68.217  0.00  0.00    +0.150 HD
BRANCH  22  24
ATOM     24  CA  UNL     1      92.991 137.264  69.834  0.00  0.00    +0.143 C 
BRANCH  24  25
ATOM     25  N   UNL     1      92.393 138.395  69.066  0.00  0.00    -0.320 NA
ATOM     26  H1  UNL     1      91.799 138.945  69.688  0.00  0.00    +0.119 HD
ATOM     27  H2  UNL     1      93.145 139.031  68.795  0.00  0.00    +0.119 HD
ENDBRANCH  24  25
BRANCH  24  28
ATOM     28  C   UNL     1      92.211 136.983  71.144  0.00  0.00    +0.046 C 
ATOM     29  C   UNL     1      91.415 138.218  71.621  0.00  0.00    +0.012 C 
BRANCH  28  30
ATOM     30  C   UNL     1      93.081 136.378  72.291  0.00  0.00    +0.168 C 
BRANCH  30  32
ATOM     31  N   UNL     1      91.779 134.812  73.681  0.00  0.00    -0.254 NA
ATOM     32  C   UNL     1      92.755 134.960  72.747  0.00  0.00    +0.070 A 
ATOM     33  C   UNL     1      93.339 133.859  72.116  0.00  0.00    +0.029 A 
ATOM     34  C   UNL     1      92.954 132.572  72.480  0.00  0.00    +0.049 A 
ATOM     35  C   UNL     1      91.413 133.547  74.005  0.00  0.00    +0.156 A 
ATOM     36  C   UNL     1      91.965 132.413  73.431  0.00  0.00    +0.135 A 
BRANCH  36  37
ATOM     37  O   UNL     1      91.569 131.149  73.745  0.00  0.00    -0.505 OA
ATOM     38  H   UNL     1      90.620 131.157  73.954  0.00  0.00    +0.292 HD
ENDBRANCH  36  37
ENDBRANCH  30  32
BRANCH  30  39
ATOM     39  O   UNL     1      94.456 136.378  71.862  0.00  0.00    -0.385 OA
ATOM     40  H   UNL     1      94.507 135.698  71.162  0.00  0.00    +0.210 HD
ENDBRANCH  30  39
ENDBRANCH  28  30
ENDBRANCH  24  28
ENDBRANCH  22  24
ENDBRANCH   1  21
BRANCH   1  42
ATOM     41  OXT UNL     1      92.273 135.788  65.310  0.00  0.00    -0.249 OA
ATOM     42  C   UNL     1      91.642 134.885  65.849  0.00  0.00    +0.328 C 
BRANCH  42  43
ATOM     43  O   UNL     1      90.888 134.008  65.142  0.00  0.00    -0.479 OA
ATOM     44  H   UNL     1      91.421 133.310  64.693  0.00  0.00    +0.295 HD
ENDBRANCH  42  43
ENDBRANCH   1  42
TORSDOF 14
ENDMDL
