MODEL 1
REMARK VINA RESULT:    -7.363      0.000      0.000
REMARK INTER + INTRA:         -11.665
REMARK INTER:                 -10.806
REMARK INTRA:                  -0.859
REMARK UNBOUND:                -0.859
REMARK  Name = 
REMARK  12 active torsions:
REMARK  status: ('A' for Active; 'I' for Inactive)
REMARK    1  A    between atoms: C_2  and  C_22
REMARK    2  A    between atoms: C_3  and  O_21
REMARK    3  A    between atoms: C_4  and  O_20
REMARK    4  A    between atoms: C_5  and  O_19
REMARK    5  A    between atoms: C_6  and  N_7
REMARK    6  A    between atoms: N_7  and  C_8
REMARK    7  A    between atoms: C_10  and  C_17
REMARK    8  A    between atoms: C_11  and  O_16
REMARK    9  A    between atoms: C_12  and  O_15
REMARK   10  A    between atoms: C_13  and  O_14
REMARK   11  A    between atoms: C_17  and  O_18
REMARK   12  A    between atoms: C_22  and  O_23
REMARK                            x       y       z     vdW  Elec       q    Type
REMARK                         _______ _______ _______ _____ _____    ______ ____
ROOT
ATOM      7  N   UNL     1     139.991 129.853 115.594  0.00  0.00    +0.000 NA
ATOM     24  H   UNL     1     139.236 129.979 114.913  0.00  0.00    +0.000 HD
ENDROOT
BRANCH   7   6
ATOM      1  C   UNL     1     137.875 129.711 117.068  0.00  0.00    +0.000 C 
ATOM      2  C   UNL     1     136.993 128.671 116.353  0.00  0.00    +0.000 C 
ATOM      3  C   UNL     1     137.368 127.247 116.769  0.00  0.00    +0.000 C 
ATOM      4  C   UNL     1     138.862 126.970 116.610  0.00  0.00    +0.000 C 
ATOM      5  C   UNL     1     139.734 128.020 117.302  0.00  0.00    +0.000 C 
ATOM      6  C   UNL     1     139.394 129.488 116.917  0.00  0.00    +0.000 C 
BRANCH   5  19
ATOM     19  O   UNL     1     141.103 127.723 116.982  0.00  0.00    +0.000 OA
ATOM     29  H   UNL     1     141.513 128.595 116.805  0.00  0.00    +0.000 HD
ENDBRANCH   5  19
BRANCH   4  20
ATOM     20  O   UNL     1     139.124 125.670 117.173  0.00  0.00    +0.000 OA
ATOM     30  H   UNL     1     138.833 125.723 118.107  0.00  0.00    +0.000 HD
ENDBRANCH   4  20
BRANCH   3  21
ATOM     21  O   UNL     1     136.651 126.314 115.949  0.00  0.00    +0.000 OA
ATOM     31  H   UNL     1     136.306 126.840 115.199  0.00  0.00    +0.000 HD
ENDBRANCH   3  21
BRANCH   2  22
ATOM     22  C   UNL     1     135.507 128.920 116.655  0.00  0.00    +0.000 C 
BRANCH  22  23
ATOM     23  O   UNL     1     134.694 128.215 115.722  0.00  0.00    +0.000 OA
ATOM     32  H   UNL     1     134.543 128.819 114.973  0.00  0.00    +0.000 HD
ENDBRANCH  22  23
ENDBRANCH   2  22
ENDBRANCH   7   6
BRANCH   7   8
ATOM      8  C   UNL     1     140.741 131.140 115.604  0.00  0.00    +0.000 C 
ATOM      9  C   UNL     1     139.896 132.355 115.923  0.00  0.00    +0.000 C 
ATOM     10  C   UNL     1     139.985 133.085 117.051  0.00  0.00    +0.000 C 
ATOM     11  C   UNL     1     140.851 132.666 118.212  0.00  0.00    +0.000 C 
ATOM     12  C   UNL     1     141.647 131.359 118.010  0.00  0.00    +0.000 C 
ATOM     13  C   UNL     1     141.991 131.115 116.530  0.00  0.00    +0.000 C 
BRANCH  13  14
ATOM     14  O   UNL     1     142.724 129.880 116.394  0.00  0.00    +0.000 OA
ATOM     25  H   UNL     1     142.518 129.512 115.515  0.00  0.00    +0.000 HD
ENDBRANCH  13  14
BRANCH  12  15
ATOM     15  O   UNL     1     142.875 131.433 118.764  0.00  0.00    +0.000 OA
ATOM     26  H   UNL     1     142.650 131.340 119.706  0.00  0.00    +0.000 HD
ENDBRANCH  12  15
BRANCH  11  16
ATOM     16  O   UNL     1     140.003 132.527 119.359  0.00  0.00    +0.000 OA
ATOM     27  H   UNL     1     140.379 133.083 120.067  0.00  0.00    +0.000 HD
ENDBRANCH  11  16
BRANCH  10  17
ATOM     17  C   UNL     1     139.282 134.409 117.256  0.00  0.00    +0.000 C 
BRANCH  17  18
ATOM     18  O   UNL     1     137.885 134.303 117.021  0.00  0.00    +0.000 OA
ATOM     28  H   UNL     1     137.631 133.395 117.259  0.00  0.00    +0.000 HD
ENDBRANCH  17  18
ENDBRANCH  10  17
ENDBRANCH   7   8
TORSDOF 12
ENDMDL
MODEL 2
REMARK VINA RESULT:    -6.242     17.919     20.675
REMARK INTER + INTRA:         -10.020
REMARK INTER:                  -8.937
REMARK INTRA:                  -1.083
REMARK UNBOUND:                -0.859
REMARK  Name = 
REMARK  12 active torsions:
REMARK  status: ('A' for Active; 'I' for Inactive)
REMARK    1  A    between atoms: C_2  and  C_22
REMARK    2  A    between atoms: C_3  and  O_21
REMARK    3  A    between atoms: C_4  and  O_20
REMARK    4  A    between atoms: C_5  and  O_19
REMARK    5  A    between atoms: C_6  and  N_7
REMARK    6  A    between atoms: N_7  and  C_8
REMARK    7  A    between atoms: C_10  and  C_17
REMARK    8  A    between atoms: C_11  and  O_16
REMARK    9  A    between atoms: C_12  and  O_15
REMARK   10  A    between atoms: C_13  and  O_14
REMARK   11  A    between atoms: C_17  and  O_18
REMARK   12  A    between atoms: C_22  and  O_23
REMARK                            x       y       z     vdW  Elec       q    Type
REMARK                         _______ _______ _______ _____ _____    ______ ____
ROOT
ATOM      7  N   UNL     1     147.931 130.623 133.388  0.00  0.00    +0.000 NA
ATOM     24  H   UNL     1     148.730 131.255 133.278  0.00  0.00    +0.000 HD
ENDROOT
BRANCH   7   6
ATOM      1  C   UNL     1     149.160 130.311 135.637  0.00  0.00    +0.000 C 
ATOM      2  C   UNL     1     149.491 131.748 136.083  0.00  0.00    +0.000 C 
ATOM      3  C   UNL     1     148.313 132.383 136.825  0.00  0.00    +0.000 C 
ATOM      4  C   UNL     1     147.011 132.291 136.032  0.00  0.00    +0.000 C 
ATOM      5  C   UNL     1     146.698 130.866 135.571  0.00  0.00    +0.000 C 
ATOM      6  C   UNL     1     147.864 130.170 134.813  0.00  0.00    +0.000 C 
BRANCH   5  19
ATOM     19  O   UNL     1     145.527 130.927 134.742  0.00  0.00    +0.000 OA
ATOM     29  H   UNL     1     145.855 131.227 133.868  0.00  0.00    +0.000 HD
ENDBRANCH   5  19
BRANCH   4  20
ATOM     20  O   UNL     1     145.951 132.772 136.882  0.00  0.00    +0.000 OA
ATOM     30  H   UNL     1     145.749 133.677 136.566  0.00  0.00    +0.000 HD
ENDBRANCH   4  20
BRANCH   3  21
ATOM     21  O   UNL     1     148.598 133.769 137.057  0.00  0.00    +0.000 OA
ATOM     31  H   UNL     1     148.785 134.147 136.174  0.00  0.00    +0.000 HD
ENDBRANCH   3  21
BRANCH   2  22
ATOM     22  C   UNL     1     150.735 131.763 136.985  0.00  0.00    +0.000 C 
BRANCH  22  23
ATOM     23  O   UNL     1     151.481 132.956 136.768  0.00  0.00    +0.000 OA
ATOM     32  H   UNL     1     151.337 133.208 135.838  0.00  0.00    +0.000 HD
ENDBRANCH  22  23
ENDBRANCH   2  22
ENDBRANCH   7   6
BRANCH   7   8
ATOM      8  C   UNL     1     148.154 129.520 132.412  0.00  0.00    +0.000 C 
ATOM      9  C   UNL     1     149.364 128.659 132.707  0.00  0.00    +0.000 C 
ATOM     10  C   UNL     1     149.320 127.374 133.107  0.00  0.00    +0.000 C 
ATOM     11  C   UNL     1     148.024 126.688 133.460  0.00  0.00    +0.000 C 
ATOM     12  C   UNL     1     146.753 127.549 133.309  0.00  0.00    +0.000 C 
ATOM     13  C   UNL     1     146.905 128.616 132.211  0.00  0.00    +0.000 C 
BRANCH  13  14
ATOM     14  O   UNL     1     145.696 129.398 132.116  0.00  0.00    +0.000 OA
ATOM     25  H   UNL     1     144.952 128.820 132.368  0.00  0.00    +0.000 HD
ENDBRANCH  13  14
BRANCH  12  15
ATOM     15  O   UNL     1     145.640 126.694 132.972  0.00  0.00    +0.000 OA
ATOM     26  H   UNL     1     145.431 126.157 133.756  0.00  0.00    +0.000 HD
ENDBRANCH  12  15
BRANCH  11  16
ATOM     16  O   UNL     1     148.128 126.237 134.818  0.00  0.00    +0.000 OA
ATOM     27  H   UNL     1     148.906 126.675 135.210  0.00  0.00    +0.000 HD
ENDBRANCH  11  16
BRANCH  10  17
ATOM     17  C   UNL     1     150.534 126.475 133.193  0.00  0.00    +0.000 C 
BRANCH  17  18
ATOM     18  O   UNL     1     150.174 125.102 133.149  0.00  0.00    +0.000 OA
ATOM     28  H   UNL     1     149.496 125.015 132.458  0.00  0.00    +0.000 HD
ENDBRANCH  17  18
ENDBRANCH  10  17
ENDBRANCH   7   8
TORSDOF 12
ENDMDL
MODEL 3
REMARK VINA RESULT:    -6.129     17.510     19.684
REMARK INTER + INTRA:          -9.855
REMARK INTER:                  -8.662
REMARK INTRA:                  -1.192
REMARK UNBOUND:                -0.859
REMARK  Name = 
REMARK  12 active torsions:
REMARK  status: ('A' for Active; 'I' for Inactive)
REMARK    1  A    between atoms: C_2  and  C_22
REMARK    2  A    between atoms: C_3  and  O_21
REMARK    3  A    between atoms: C_4  and  O_20
REMARK    4  A    between atoms: C_5  and  O_19
REMARK    5  A    between atoms: C_6  and  N_7
REMARK    6  A    between atoms: N_7  and  C_8
REMARK    7  A    between atoms: C_10  and  C_17
REMARK    8  A    between atoms: C_11  and  O_16
REMARK    9  A    between atoms: C_12  and  O_15
REMARK   10  A    between atoms: C_13  and  O_14
REMARK   11  A    between atoms: C_17  and  O_18
REMARK   12  A    between atoms: C_22  and  O_23
REMARK                            x       y       z     vdW  Elec       q    Type
REMARK                         _______ _______ _______ _____ _____    ______ ____
ROOT
ATOM      7  N   UNL     1     125.885 121.547 129.015  0.00  0.00    +0.000 NA
ATOM     24  H   UNL     1     125.774 120.606 128.624  0.00  0.00    +0.000 HD
ENDROOT
BRANCH   7   6
ATOM      1  C   UNL     1     126.304 121.902 126.491  0.00  0.00    +0.000 C 
ATOM      2  C   UNL     1     125.019 121.378 125.823  0.00  0.00    +0.000 C 
ATOM      3  C   UNL     1     123.934 122.456 125.785  0.00  0.00    +0.000 C 
ATOM      4  C   UNL     1     123.681 123.072 127.161  0.00  0.00    +0.000 C 
ATOM      5  C   UNL     1     124.963 123.570 127.831  0.00  0.00    +0.000 C 
ATOM      6  C   UNL     1     126.103 122.514 127.893  0.00  0.00    +0.000 C 
BRANCH   5  19
ATOM     19  O   UNL     1     124.616 124.012 129.153  0.00  0.00    +0.000 OA
ATOM     29  H   UNL     1     125.176 124.802 129.307  0.00  0.00    +0.000 HD
ENDBRANCH   5  19
BRANCH   4  20
ATOM     20  O   UNL     1     122.766 124.170 126.982  0.00  0.00    +0.000 OA
ATOM     30  H   UNL     1     123.185 124.758 126.319  0.00  0.00    +0.000 HD
ENDBRANCH   4  20
BRANCH   3  21
ATOM     21  O   UNL     1     122.708 121.871 125.325  0.00  0.00    +0.000 OA
ATOM     31  H   UNL     1     122.944 120.965 125.039  0.00  0.00    +0.000 HD
ENDBRANCH   3  21
BRANCH   2  22
ATOM     22  C   UNL     1     125.310 120.892 124.395  0.00  0.00    +0.000 C 
BRANCH  22  23
ATOM     23  O   UNL     1     124.403 119.853 124.038  0.00  0.00    +0.000 OA
ATOM     32  H   UNL     1     123.537 120.103 124.406  0.00  0.00    +0.000 HD
ENDBRANCH  22  23
ENDBRANCH   2  22
ENDBRANCH   7   6
BRANCH   7   8
ATOM      8  C   UNL     1     127.028 121.455 129.965  0.00  0.00    +0.000 C 
ATOM      9  C   UNL     1     128.172 122.398 129.661  0.00  0.00    +0.000 C 
ATOM     10  C   UNL     1     128.522 123.459 130.413  0.00  0.00    +0.000 C 
ATOM     11  C   UNL     1     127.693 123.919 131.585  0.00  0.00    +0.000 C 
ATOM     12  C   UNL     1     126.431 123.079 131.878  0.00  0.00    +0.000 C 
ATOM     13  C   UNL     1     126.604 121.611 131.453  0.00  0.00    +0.000 C 
BRANCH  13  14
ATOM     14  O   UNL     1     125.398 120.872 131.738  0.00  0.00    +0.000 OA
ATOM     25  H   UNL     1     125.653 120.075 132.238  0.00  0.00    +0.000 HD
ENDBRANCH  13  14
BRANCH  12  15
ATOM     15  O   UNL     1     126.154 123.122 133.293  0.00  0.00    +0.000 OA
ATOM     26  H   UNL     1     126.637 122.388 133.712  0.00  0.00    +0.000 HD
ENDBRANCH  12  15
BRANCH  11  16
ATOM     16  O   UNL     1     127.306 125.277 131.337  0.00  0.00    +0.000 OA
ATOM     27  H   UNL     1     128.124 125.794 131.214  0.00  0.00    +0.000 HD
ENDBRANCH  11  16
BRANCH  10  17
ATOM     17  C   UNL     1     129.790 124.258 130.206  0.00  0.00    +0.000 C 
BRANCH  17  18
ATOM     18  O   UNL     1     129.581 125.353 129.324  0.00  0.00    +0.000 OA
ATOM     28  H   UNL     1     128.623 125.402 129.165  0.00  0.00    +0.000 HD
ENDBRANCH  17  18
ENDBRANCH  10  17
ENDBRANCH   7   8
TORSDOF 12
ENDMDL
MODEL 4
REMARK VINA RESULT:    -6.110     23.728     26.835
REMARK INTER + INTRA:          -9.827
REMARK INTER:                  -8.619
REMARK INTRA:                  -1.208
REMARK UNBOUND:                -0.859
REMARK  Name = 
REMARK  12 active torsions:
REMARK  status: ('A' for Active; 'I' for Inactive)
REMARK    1  A    between atoms: C_2  and  C_22
REMARK    2  A    between atoms: C_3  and  O_21
REMARK    3  A    between atoms: C_4  and  O_20
REMARK    4  A    between atoms: C_5  and  O_19
REMARK    5  A    between atoms: C_6  and  N_7
REMARK    6  A    between atoms: N_7  and  C_8
REMARK    7  A    between atoms: C_10  and  C_17
REMARK    8  A    between atoms: C_11  and  O_16
REMARK    9  A    between atoms: C_12  and  O_15
REMARK   10  A    between atoms: C_13  and  O_14
REMARK   11  A    between atoms: C_17  and  O_18
REMARK   12  A    between atoms: C_22  and  O_23
REMARK                            x       y       z     vdW  Elec       q    Type
REMARK                         _______ _______ _______ _____ _____    ______ ____
ROOT
ATOM      7  N   UNL     1     121.125 146.254 128.461  0.00  0.00    +0.000 NA
ATOM     24  H   UNL     1     120.147 146.300 128.157  0.00  0.00    +0.000 HD
ENDROOT
BRANCH   7   6
ATOM      1  C   UNL     1     121.295 146.962 125.983  0.00  0.00    +0.000 C 
ATOM      2  C   UNL     1     120.663 148.366 125.953  0.00  0.00    +0.000 C 
ATOM      3  C   UNL     1     121.686 149.443 126.321  0.00  0.00    +0.000 C 
ATOM      4  C   UNL     1     122.398 149.139 127.638  0.00  0.00    +0.000 C 
ATOM      5  C   UNL     1     123.004 147.735 127.672  0.00  0.00    +0.000 C 
ATOM      6  C   UNL     1     122.008 146.599 127.302  0.00  0.00    +0.000 C 
BRANCH   5  19
ATOM     19  O   UNL     1     123.535 147.525 128.991  0.00  0.00    +0.000 OA
ATOM     29  H   UNL     1     124.332 148.094 129.033  0.00  0.00    +0.000 HD
ENDBRANCH   5  19
BRANCH   4  20
ATOM     20  O   UNL     1     123.437 150.123 127.805  0.00  0.00    +0.000 OA
ATOM     30  H   UNL     1     123.122 150.923 127.336  0.00  0.00    +0.000 HD
ENDBRANCH   4  20
BRANCH   3  21
ATOM     21  O   UNL     1     121.013 150.702 126.457  0.00  0.00    +0.000 OA
ATOM     31  H   UNL     1     121.525 151.198 127.128  0.00  0.00    +0.000 HD
ENDBRANCH   3  21
BRANCH   2  22
ATOM     22  C   UNL     1     120.077 148.667 124.564  0.00  0.00    +0.000 C 
BRANCH  22  23
ATOM     23  O   UNL     1     120.824 149.704 123.934  0.00  0.00    +0.000 OA
ATOM     32  H   UNL     1     120.199 150.430 123.761  0.00  0.00    +0.000 HD
ENDBRANCH  22  23
ENDBRANCH   2  22
ENDBRANCH   7   6
BRANCH   7   8
ATOM      8  C   UNL     1     121.319 144.872 128.979  0.00  0.00    +0.000 C 
ATOM      9  C   UNL     1     122.546 144.168 128.438  0.00  0.00    +0.000 C 
ATOM     10  C   UNL     1     123.640 143.856 129.159  0.00  0.00    +0.000 C 
ATOM     11  C   UNL     1     123.826 144.326 130.579  0.00  0.00    +0.000 C 
ATOM     12  C   UNL     1     122.667 145.165 131.159  0.00  0.00    +0.000 C 
ATOM     13  C   UNL     1     121.313 144.791 130.532  0.00  0.00    +0.000 C 
BRANCH  13  14
ATOM     14  O   UNL     1     120.268 145.608 131.099  0.00  0.00    +0.000 OA
ATOM     25  H   UNL     1     120.613 146.517 131.172  0.00  0.00    +0.000 HD
ENDBRANCH  13  14
BRANCH  12  15
ATOM     15  O   UNL     1     122.593 144.949 132.583  0.00  0.00    +0.000 OA
ATOM     26  H   UNL     1     121.738 144.525 132.774  0.00  0.00    +0.000 HD
ENDBRANCH  12  15
BRANCH  11  16
ATOM     16  O   UNL     1     125.035 145.096 130.628  0.00  0.00    +0.000 OA
ATOM     27  H   UNL     1     125.064 145.641 129.819  0.00  0.00    +0.000 HD
ENDBRANCH  11  16
BRANCH  10  17
ATOM     17  C   UNL     1     124.759 142.972 128.653  0.00  0.00    +0.000 C 
BRANCH  17  18
ATOM     18  O   UNL     1     125.734 143.718 127.937  0.00  0.00    +0.000 OA
ATOM     28  H   UNL     1     126.244 144.216 128.598  0.00  0.00    +0.000 HD
ENDBRANCH  17  18
ENDBRANCH  10  17
ENDBRANCH   7   8
TORSDOF 12
ENDMDL
MODEL 5
REMARK VINA RESULT:    -6.003     18.544     21.216
REMARK INTER + INTRA:          -9.669
REMARK INTER:                  -8.467
REMARK INTRA:                  -1.202
REMARK UNBOUND:                -0.859
REMARK  Name = 
REMARK  12 active torsions:
REMARK  status: ('A' for Active; 'I' for Inactive)
REMARK    1  A    between atoms: C_2  and  C_22
REMARK    2  A    between atoms: C_3  and  O_21
REMARK    3  A    between atoms: C_4  and  O_20
REMARK    4  A    between atoms: C_5  and  O_19
REMARK    5  A    between atoms: C_6  and  N_7
REMARK    6  A    between atoms: N_7  and  C_8
REMARK    7  A    between atoms: C_10  and  C_17
REMARK    8  A    between atoms: C_11  and  O_16
REMARK    9  A    between atoms: C_12  and  O_15
REMARK   10  A    between atoms: C_13  and  O_14
REMARK   11  A    between atoms: C_17  and  O_18
REMARK   12  A    between atoms: C_22  and  O_23
REMARK                            x       y       z     vdW  Elec       q    Type
REMARK                         _______ _______ _______ _____ _____    ______ ____
ROOT
ATOM      7  N   UNL     1     149.687 129.643 135.081  0.00  0.00    +0.000 NA
ATOM     24  H   UNL     1     150.636 129.676 135.466  0.00  0.00    +0.000 HD
ENDROOT
BRANCH   7   6
ATOM      1  C   UNL     1     149.300 129.852 137.626  0.00  0.00    +0.000 C 
ATOM      2  C   UNL     1     149.861 131.243 137.975  0.00  0.00    +0.000 C 
ATOM      3  C   UNL     1     148.819 132.337 137.736  0.00  0.00    +0.000 C 
ATOM      4  C   UNL     1     148.222 132.272 136.331  0.00  0.00    +0.000 C 
ATOM      5  C   UNL     1     147.686 130.882 135.980  0.00  0.00    +0.000 C 
ATOM      6  C   UNL     1     148.705 129.729 136.208  0.00  0.00    +0.000 C 
BRANCH   5  19
ATOM     19  O   UNL     1     147.266 130.915 134.607  0.00  0.00    +0.000 OA
ATOM     29  H   UNL     1     148.068 130.681 134.094  0.00  0.00    +0.000 HD
ENDBRANCH   5  19
BRANCH   4  20
ATOM     20  O   UNL     1     147.153 133.236 136.270  0.00  0.00    +0.000 OA
ATOM     30  H   UNL     1     146.430 132.864 136.816  0.00  0.00    +0.000 HD
ENDBRANCH   4  20
BRANCH   3  21
ATOM     21  O   UNL     1     149.440 133.620 137.898  0.00  0.00    +0.000 OA
ATOM     31  H   UNL     1     148.905 134.084 138.573  0.00  0.00    +0.000 HD
ENDBRANCH   3  21
BRANCH   2  22
ATOM     22  C   UNL     1     150.327 131.288 139.439  0.00  0.00    +0.000 C 
BRANCH  22  23
ATOM     23  O   UNL     1     151.462 132.139 139.564  0.00  0.00    +0.000 OA
ATOM     32  H   UNL     1     152.124 131.646 140.079  0.00  0.00    +0.000 HD
ENDBRANCH  22  23
ENDBRANCH   2  22
ENDBRANCH   7   6
BRANCH   7   8
ATOM      8  C   UNL     1     149.610 128.372 134.309  0.00  0.00    +0.000 C 
ATOM      9  C   UNL     1     148.332 127.588 134.518  0.00  0.00    +0.000 C 
ATOM     10  C   UNL     1     147.373 127.410 133.589  0.00  0.00    +0.000 C 
ATOM     11  C   UNL     1     147.402 128.119 132.259  0.00  0.00    +0.000 C 
ATOM     12  C   UNL     1     148.616 129.044 132.025  0.00  0.00    +0.000 C 
ATOM     13  C   UNL     1     149.863 128.563 132.786  0.00  0.00    +0.000 C 
BRANCH  13  14
ATOM     14  O   UNL     1     150.964 129.463 132.542  0.00  0.00    +0.000 OA
ATOM     25  H   UNL     1     151.157 129.923 133.380  0.00  0.00    +0.000 HD
ENDBRANCH  13  14
BRANCH  12  15
ATOM     15  O   UNL     1     148.918 129.078 130.615  0.00  0.00    +0.000 OA
ATOM     26  H   UNL     1     149.069 130.007 130.367  0.00  0.00    +0.000 HD
ENDBRANCH  12  15
BRANCH  11  16
ATOM     16  O   UNL     1     146.197 128.890 132.152  0.00  0.00    +0.000 OA
ATOM     27  H   UNL     1     145.898 129.089 133.059  0.00  0.00    +0.000 HD
ENDBRANCH  11  16
BRANCH  10  17
ATOM     17  C   UNL     1     146.211 126.454 133.750  0.00  0.00    +0.000 C 
BRANCH  17  18
ATOM     18  O   UNL     1     145.479 126.309 132.541  0.00  0.00    +0.000 OA
ATOM     28  H   UNL     1     145.226 127.206 132.261  0.00  0.00    +0.000 HD
ENDBRANCH  17  18
ENDBRANCH  10  17
ENDBRANCH   7   8
TORSDOF 12
ENDMDL
MODEL 6
REMARK VINA RESULT:    -5.920     23.644     26.565
REMARK INTER + INTRA:          -9.548
REMARK INTER:                  -8.458
REMARK INTRA:                  -1.090
REMARK UNBOUND:                -0.859
REMARK  Name = 
REMARK  12 active torsions:
REMARK  status: ('A' for Active; 'I' for Inactive)
REMARK    1  A    between atoms: C_2  and  C_22
REMARK    2  A    between atoms: C_3  and  O_21
REMARK    3  A    between atoms: C_4  and  O_20
REMARK    4  A    between atoms: C_5  and  O_19
REMARK    5  A    between atoms: C_6  and  N_7
REMARK    6  A    between atoms: N_7  and  C_8
REMARK    7  A    between atoms: C_10  and  C_17
REMARK    8  A    between atoms: C_11  and  O_16
REMARK    9  A    between atoms: C_12  and  O_15
REMARK   10  A    between atoms: C_13  and  O_14
REMARK   11  A    between atoms: C_17  and  O_18
REMARK   12  A    between atoms: C_22  and  O_23
REMARK                            x       y       z     vdW  Elec       q    Type
REMARK                         _______ _______ _______ _____ _____    ______ ____
ROOT
ATOM      7  N   UNL     1     121.758 146.719 129.436  0.00  0.00    +0.000 NA
ATOM     24  H   UNL     1     120.766 146.932 129.289  0.00  0.00    +0.000 HD
ENDROOT
BRANCH   7   6
ATOM      1  C   UNL     1     121.630 146.976 126.869  0.00  0.00    +0.000 C 
ATOM      2  C   UNL     1     120.853 148.290 126.665  0.00  0.00    +0.000 C 
ATOM      3  C   UNL     1     121.786 149.501 126.731  0.00  0.00    +0.000 C 
ATOM      4  C   UNL     1     122.642 149.506 127.997  0.00  0.00    +0.000 C 
ATOM      5  C   UNL     1     123.393 148.190 128.208  0.00  0.00    +0.000 C 
ATOM      6  C   UNL     1     122.493 146.924 128.147  0.00  0.00    +0.000 C 
BRANCH   5  19
ATOM     19  O   UNL     1     124.059 148.271 129.478  0.00  0.00    +0.000 OA
ATOM     29  H   UNL     1     124.922 147.827 129.337  0.00  0.00    +0.000 HD
ENDBRANCH   5  19
BRANCH   4  20
ATOM     20  O   UNL     1     123.582 150.591 127.880  0.00  0.00    +0.000 OA
ATOM     30  H   UNL     1     123.051 151.411 127.954  0.00  0.00    +0.000 HD
ENDBRANCH   4  20
BRANCH   3  21
ATOM     21  O   UNL     1     121.000 150.700 126.719  0.00  0.00    +0.000 OA
ATOM     31  H   UNL     1     120.622 150.772 127.619  0.00  0.00    +0.000 HD
ENDBRANCH   3  21
BRANCH   2  22
ATOM     22  C   UNL     1     120.117 148.281 125.316  0.00  0.00    +0.000 C 
BRANCH  22  23
ATOM     23  O   UNL     1     120.706 149.230 124.433  0.00  0.00    +0.000 OA
ATOM     32  H   UNL     1     120.017 149.888 124.233  0.00  0.00    +0.000 HD
ENDBRANCH  22  23
ENDBRANCH   2  22
ENDBRANCH   7   6
BRANCH   7   8
ATOM      8  C   UNL     1     121.798 145.317 129.938  0.00  0.00    +0.000 C 
ATOM      9  C   UNL     1     121.379 144.276 128.922  0.00  0.00    +0.000 C 
ATOM     10  C   UNL     1     122.201 143.371 128.357  0.00  0.00    +0.000 C 
ATOM     11  C   UNL     1     123.693 143.401 128.568  0.00  0.00    +0.000 C 
ATOM     12  C   UNL     1     124.212 144.523 129.493  0.00  0.00    +0.000 C 
ATOM     13  C   UNL     1     123.172 144.924 130.553  0.00  0.00    +0.000 C 
BRANCH  13  14
ATOM     14  O   UNL     1     123.699 145.979 131.384  0.00  0.00    +0.000 OA
ATOM     25  H   UNL     1     122.951 146.369 131.873  0.00  0.00    +0.000 HD
ENDBRANCH  13  14
BRANCH  12  15
ATOM     15  O   UNL     1     125.404 144.067 130.165  0.00  0.00    +0.000 OA
ATOM     26  H   UNL     1     126.068 144.777 130.103  0.00  0.00    +0.000 HD
ENDBRANCH  12  15
BRANCH  11  16
ATOM     16  O   UNL     1     124.311 143.531 127.281  0.00  0.00    +0.000 OA
ATOM     27  H   UNL     1     124.590 144.461 127.185  0.00  0.00    +0.000 HD
ENDBRANCH  11  16
BRANCH  10  17
ATOM     17  C   UNL     1     121.723 142.213 127.509  0.00  0.00    +0.000 C 
BRANCH  17  18
ATOM     18  O   UNL     1     122.758 141.266 127.284  0.00  0.00    +0.000 OA
ATOM     28  H   UNL     1     123.178 141.509 126.441  0.00  0.00    +0.000 HD
ENDBRANCH  17  18
ENDBRANCH  10  17
ENDBRANCH   7   8
TORSDOF 12
ENDMDL
MODEL 7
REMARK VINA RESULT:    -5.897     17.459     20.324
REMARK INTER + INTRA:          -9.513
REMARK INTER:                  -8.687
REMARK INTRA:                  -0.826
REMARK UNBOUND:                -0.859
REMARK  Name = 
REMARK  12 active torsions:
REMARK  status: ('A' for Active; 'I' for Inactive)
REMARK    1  A    between atoms: C_2  and  C_22
REMARK    2  A    between atoms: C_3  and  O_21
REMARK    3  A    between atoms: C_4  and  O_20
REMARK    4  A    between atoms: C_5  and  O_19
REMARK    5  A    between atoms: C_6  and  N_7
REMARK    6  A    between atoms: N_7  and  C_8
REMARK    7  A    between atoms: C_10  and  C_17
REMARK    8  A    between atoms: C_11  and  O_16
REMARK    9  A    between atoms: C_12  and  O_15
REMARK   10  A    between atoms: C_13  and  O_14
REMARK   11  A    between atoms: C_17  and  O_18
REMARK   12  A    between atoms: C_22  and  O_23
REMARK                            x       y       z     vdW  Elec       q    Type
REMARK                         _______ _______ _______ _____ _____    ______ ____
ROOT
ATOM      7  N   UNL     1     124.844 142.065 121.187  0.00  0.00    +0.000 NA
ATOM     24  H   UNL     1     125.157 142.987 120.867  0.00  0.00    +0.000 HD
ENDROOT
BRANCH   7   6
ATOM      1  C   UNL     1     124.004 142.050 118.745  0.00  0.00    +0.000 C 
ATOM      2  C   UNL     1     125.168 142.669 117.948  0.00  0.00    +0.000 C 
ATOM      3  C   UNL     1     126.214 141.612 117.585  0.00  0.00    +0.000 C 
ATOM      4  C   UNL     1     126.683 140.818 118.803  0.00  0.00    +0.000 C 
ATOM      5  C   UNL     1     125.523 140.226 119.605  0.00  0.00    +0.000 C 
ATOM      6  C   UNL     1     124.426 141.256 119.999  0.00  0.00    +0.000 C 
BRANCH   5  19
ATOM     19  O   UNL     1     126.078 139.612 120.780  0.00  0.00    +0.000 OA
ATOM     29  H   UNL     1     126.658 138.899 120.438  0.00  0.00    +0.000 HD
ENDBRANCH   5  19
BRANCH   4  20
ATOM     20  O   UNL     1     127.538 139.760 118.328  0.00  0.00    +0.000 OA
ATOM     30  H   UNL     1     127.663 139.931 117.372  0.00  0.00    +0.000 HD
ENDBRANCH   4  20
BRANCH   3  21
ATOM     21  O   UNL     1     127.356 142.262 117.009  0.00  0.00    +0.000 OA
ATOM     31  H   UNL     1     127.035 143.138 116.715  0.00  0.00    +0.000 HD
ENDBRANCH   3  21
BRANCH   2  22
ATOM     22  C   UNL     1     124.651 143.341 116.666  0.00  0.00    +0.000 C 
BRANCH  22  23
ATOM     23  O   UNL     1     125.425 144.500 116.377  0.00  0.00    +0.000 OA
ATOM     32  H   UNL     1     126.089 144.234 115.716  0.00  0.00    +0.000 HD
ENDBRANCH  22  23
ENDBRANCH   2  22
ENDBRANCH   7   6
BRANCH   7   8
ATOM      8  C   UNL     1     123.744 142.328 122.156  0.00  0.00    +0.000 C 
ATOM      9  C   UNL     1     122.814 143.454 121.757  0.00  0.00    +0.000 C 
ATOM     10  C   UNL     1     121.528 143.302 121.388  0.00  0.00    +0.000 C 
ATOM     11  C   UNL     1     120.908 141.943 121.181  0.00  0.00    +0.000 C 
ATOM     12  C   UNL     1     121.840 140.740 121.443  0.00  0.00    +0.000 C 
ATOM     13  C   UNL     1     122.911 141.060 122.499  0.00  0.00    +0.000 C 
BRANCH  13  14
ATOM     14  O   UNL     1     123.759 139.910 122.702  0.00  0.00    +0.000 OA
ATOM     25  H   UNL     1     124.448 139.930 122.012  0.00  0.00    +0.000 HD
ENDBRANCH  13  14
BRANCH  12  15
ATOM     15  O   UNL     1     121.051 139.625 121.907  0.00  0.00    +0.000 OA
ATOM     26  H   UNL     1     120.742 139.135 121.125  0.00  0.00    +0.000 HD
ENDBRANCH  12  15
BRANCH  11  16
ATOM     16  O   UNL     1     120.434 141.883 119.828  0.00  0.00    +0.000 OA
ATOM     27  H   UNL     1     119.840 142.646 119.696  0.00  0.00    +0.000 HD
ENDBRANCH  11  16
BRANCH  10  17
ATOM     17  C   UNL     1     120.564 144.452 121.196  0.00  0.00    +0.000 C 
BRANCH  17  18
ATOM     18  O   UNL     1     120.516 144.876 119.842  0.00  0.00    +0.000 OA
ATOM     28  H   UNL     1     120.281 145.820 119.855  0.00  0.00    +0.000 HD
ENDBRANCH  17  18
ENDBRANCH  10  17
ENDBRANCH   7   8
TORSDOF 12
ENDMDL
MODEL 8
REMARK VINA RESULT:    -5.875     23.790     26.645
REMARK INTER + INTRA:          -9.482
REMARK INTER:                  -8.449
REMARK INTRA:                  -1.033
REMARK UNBOUND:                -0.859
REMARK  Name = 
REMARK  12 active torsions:
REMARK  status: ('A' for Active; 'I' for Inactive)
REMARK    1  A    between atoms: C_2  and  C_22
REMARK    2  A    between atoms: C_3  and  O_21
REMARK    3  A    between atoms: C_4  and  O_20
REMARK    4  A    between atoms: C_5  and  O_19
REMARK    5  A    between atoms: C_6  and  N_7
REMARK    6  A    between atoms: N_7  and  C_8
REMARK    7  A    between atoms: C_10  and  C_17
REMARK    8  A    between atoms: C_11  and  O_16
REMARK    9  A    between atoms: C_12  and  O_15
REMARK   10  A    between atoms: C_13  and  O_14
REMARK   11  A    between atoms: C_17  and  O_18
REMARK   12  A    between atoms: C_22  and  O_23
REMARK                            x       y       z     vdW  Elec       q    Type
REMARK                         _______ _______ _______ _____ _____    ______ ____
ROOT
ATOM      7  N   UNL     1     121.192 146.435 128.894  0.00  0.00    +0.000 NA
ATOM     24  H   UNL     1     121.676 146.927 129.652  0.00  0.00    +0.000 HD
ENDROOT
BRANCH   7   6
ATOM      1  C   UNL     1     122.118 144.054 128.519  0.00  0.00    +0.000 C 
ATOM      2  C   UNL     1     123.561 144.128 129.053  0.00  0.00    +0.000 C 
ATOM      3  C   UNL     1     123.604 143.896 130.565  0.00  0.00    +0.000 C 
ATOM      4  C   UNL     1     122.643 144.813 131.320  0.00  0.00    +0.000 C 
ATOM      5  C   UNL     1     121.216 144.755 130.770  0.00  0.00    +0.000 C 
ATOM      6  C   UNL     1     121.113 144.980 129.235  0.00  0.00    +0.000 C 
BRANCH   5  19
ATOM     19  O   UNL     1     120.441 145.739 131.474  0.00  0.00    +0.000 OA
ATOM     29  H   UNL     1     120.724 145.657 132.410  0.00  0.00    +0.000 HD
ENDBRANCH   5  19
BRANCH   4  20
ATOM     20  O   UNL     1     122.650 144.406 132.702  0.00  0.00    +0.000 OA
ATOM     30  H   UNL     1     122.896 145.205 133.212  0.00  0.00    +0.000 HD
ENDBRANCH   4  20
BRANCH   3  21
ATOM     21  O   UNL     1     124.933 144.153 131.041  0.00  0.00    +0.000 OA
ATOM     31  H   UNL     1     125.487 144.226 130.237  0.00  0.00    +0.000 HD
ENDBRANCH   3  21
BRANCH   2  22
ATOM     22  C   UNL     1     124.453 143.093 128.350  0.00  0.00    +0.000 C 
BRANCH  22  23
ATOM     23  O   UNL     1     125.816 143.503 128.409  0.00  0.00    +0.000 OA
ATOM     32  H   UNL     1     126.011 143.940 127.561  0.00  0.00    +0.000 HD
ENDBRANCH  22  23
ENDBRANCH   2  22
ENDBRANCH   7   6
BRANCH   7   8
ATOM      8  C   UNL     1     121.975 146.727 127.662  0.00  0.00    +0.000 C 
ATOM      9  C   UNL     1     121.132 147.051 126.447  0.00  0.00    +0.000 C 
ATOM     10  C   UNL     1     121.055 148.261 125.859  0.00  0.00    +0.000 C 
ATOM     11  C   UNL     1     121.699 149.486 126.457  0.00  0.00    +0.000 C 
ATOM     12  C   UNL     1     122.470 149.256 127.774  0.00  0.00    +0.000 C 
ATOM     13  C   UNL     1     123.049 147.834 127.863  0.00  0.00    +0.000 C 
BRANCH  13  14
ATOM     14  O   UNL     1     123.750 147.667 129.113  0.00  0.00    +0.000 OA
ATOM     25  H   UNL     1     124.606 147.243 128.914  0.00  0.00    +0.000 HD
ENDBRANCH  13  14
BRANCH  12  15
ATOM     15  O   UNL     1     123.555 150.203 127.857  0.00  0.00    +0.000 OA
ATOM     26  H   UNL     1     124.304 149.758 128.292  0.00  0.00    +0.000 HD
ENDBRANCH  12  15
BRANCH  11  16
ATOM     16  O   UNL     1     120.665 150.454 126.681  0.00  0.00    +0.000 OA
ATOM     27  H   UNL     1     121.029 151.135 127.278  0.00  0.00    +0.000 HD
ENDBRANCH  11  16
BRANCH  10  17
ATOM     17  C   UNL     1     120.376 148.511 124.530  0.00  0.00    +0.000 C 
BRANCH  17  18
ATOM     18  O   UNL     1     120.871 149.684 123.900  0.00  0.00    +0.000 OA
ATOM     28  H   UNL     1     121.805 149.513 123.691  0.00  0.00    +0.000 HD
ENDBRANCH  17  18
ENDBRANCH  10  17
ENDBRANCH   7   8
TORSDOF 12
ENDMDL
MODEL 9
REMARK VINA RESULT:    -5.857     18.945     21.851
REMARK INTER + INTRA:          -9.456
REMARK INTER:                  -8.462
REMARK INTRA:                  -0.993
REMARK UNBOUND:                -0.859
REMARK  Name = 
REMARK  12 active torsions:
REMARK  status: ('A' for Active; 'I' for Inactive)
REMARK    1  A    between atoms: C_2  and  C_22
REMARK    2  A    between atoms: C_3  and  O_21
REMARK    3  A    between atoms: C_4  and  O_20
REMARK    4  A    between atoms: C_5  and  O_19
REMARK    5  A    between atoms: C_6  and  N_7
REMARK    6  A    between atoms: N_7  and  C_8
REMARK    7  A    between atoms: C_10  and  C_17
REMARK    8  A    between atoms: C_11  and  O_16
REMARK    9  A    between atoms: C_12  and  O_15
REMARK   10  A    between atoms: C_13  and  O_14
REMARK   11  A    between atoms: C_17  and  O_18
REMARK   12  A    between atoms: C_22  and  O_23
REMARK                            x       y       z     vdW  Elec       q    Type
REMARK                         _______ _______ _______ _____ _____    ______ ____
ROOT
ATOM      7  N   UNL     1     122.573 143.053 117.641  0.00  0.00    +0.000 NA
ATOM     24  H   UNL     1     121.986 143.501 118.352  0.00  0.00    +0.000 HD
ENDROOT
BRANCH   7   6
ATOM      1  C   UNL     1     120.233 142.768 116.584  0.00  0.00    +0.000 C 
ATOM      2  C   UNL     1     119.534 144.112 116.862  0.00  0.00    +0.000 C 
ATOM      3  C   UNL     1     119.881 145.149 115.791  0.00  0.00    +0.000 C 
ATOM      4  C   UNL     1     121.389 145.293 115.592  0.00  0.00    +0.000 C 
ATOM      5  C   UNL     1     122.083 143.953 115.339  0.00  0.00    +0.000 C 
ATOM      6  C   UNL     1     121.762 142.859 116.397  0.00  0.00    +0.000 C 
BRANCH   5  19
ATOM     19  O   UNL     1     123.497 144.202 115.289  0.00  0.00    +0.000 OA
ATOM     29  H   UNL     1     123.885 143.367 114.951  0.00  0.00    +0.000 HD
ENDBRANCH   5  19
BRANCH   4  20
ATOM     20  O   UNL     1     121.595 146.168 114.466  0.00  0.00    +0.000 OA
ATOM     30  H   UNL     1     122.291 146.799 114.745  0.00  0.00    +0.000 HD
ENDBRANCH   4  20
BRANCH   3  21
ATOM     21  O   UNL     1     119.359 146.424 116.188  0.00  0.00    +0.000 OA
ATOM     31  H   UNL     1     118.505 146.513 115.717  0.00  0.00    +0.000 HD
ENDBRANCH   3  21
BRANCH   2  22
ATOM     22  C   UNL     1     118.009 143.927 116.923  0.00  0.00    +0.000 C 
BRANCH  22  23
ATOM     23  O   UNL     1     117.437 144.882 117.811  0.00  0.00    +0.000 OA
ATOM     32  H   UNL     1     117.543 144.523 118.710  0.00  0.00    +0.000 HD
ENDBRANCH  22  23
ENDBRANCH   2  22
ENDBRANCH   7   6
BRANCH   7   8
ATOM      8  C   UNL     1     123.050 141.783 118.256  0.00  0.00    +0.000 C 
ATOM      9  C   UNL     1     124.424 141.343 117.797  0.00  0.00    +0.000 C 
ATOM     10  C   UNL     1     125.529 141.330 118.566  0.00  0.00    +0.000 C 
ATOM     11  C   UNL     1     125.546 141.913 119.956  0.00  0.00    +0.000 C 
ATOM     12  C   UNL     1     124.207 142.503 120.446  0.00  0.00    +0.000 C 
ATOM     13  C   UNL     1     122.998 141.796 119.810  0.00  0.00    +0.000 C 
BRANCH  13  14
ATOM     14  O   UNL     1     121.773 142.389 120.292  0.00  0.00    +0.000 OA
ATOM     25  H   UNL     1     121.935 142.695 121.204  0.00  0.00    +0.000 HD
ENDBRANCH  13  14
BRANCH  12  15
ATOM     15  O   UNL     1     124.124 142.361 121.880  0.00  0.00    +0.000 OA
ATOM     26  H   UNL     1     124.179 143.251 122.269  0.00  0.00    +0.000 HD
ENDBRANCH  12  15
BRANCH  11  16
ATOM     16  O   UNL     1     126.550 142.938 119.985  0.00  0.00    +0.000 OA
ATOM     27  H   UNL     1     126.220 143.681 119.445  0.00  0.00    +0.000 HD
ENDBRANCH  11  16
BRANCH  10  17
ATOM     17  C   UNL     1     126.837 140.693 118.151  0.00  0.00    +0.000 C 
BRANCH  17  18
ATOM     18  O   UNL     1     127.771 141.661 117.693  0.00  0.00    +0.000 OA
ATOM     28  H   UNL     1     128.138 141.320 116.860  0.00  0.00    +0.000 HD
ENDBRANCH  17  18
ENDBRANCH  10  17
ENDBRANCH   7   8
TORSDOF 12
ENDMDL
