MODEL 1
REMARK VINA RESULT:    -7.406      0.000      0.000
REMARK INTER + INTRA:         -11.628
REMARK INTER:                 -10.869
REMARK INTRA:                  -0.759
REMARK UNBOUND:                -0.759
REMARK  Name = 
REMARK  12 active torsions:
REMARK  status: ('A' for Active; 'I' for Inactive)
REMARK    1  A    between atoms: C_2  and  C_22
REMARK    2  A    between atoms: C_3  and  O_21
REMARK    3  A    between atoms: C_4  and  O_20
REMARK    4  A    between atoms: C_5  and  O_19
REMARK    5  A    between atoms: C_6  and  N_7
REMARK    6  A    between atoms: N_7  and  C_8
REMARK    7  A    between atoms: C_10  and  C_17
REMARK    8  A    between atoms: C_11  and  O_16
REMARK    9  A    between atoms: C_12  and  O_15
REMARK   10  A    between atoms: C_13  and  O_14
REMARK   11  A    between atoms: C_17  and  O_18
REMARK   12  A    between atoms: C_22  and  O_23
REMARK                            x       y       z     vdW  Elec       q    Type
REMARK                         _______ _______ _______ _____ _____    ______ ____
ROOT
ATOM      1  N   UNL     1       1.865   2.234  -1.320  0.00  0.00    -0.302 NA
ATOM      2  H   UNL     1       1.714   1.707  -2.186  0.00  0.00    +0.123 HD
ENDROOT
BRANCH   1   8
ATOM      3  C   UNL     1      -0.431   3.176  -2.006  0.00  0.00    +0.029 C 
ATOM      4  C   UNL     1      -1.122   1.949  -2.631  0.00  0.00    +0.047 C 
ATOM      5  C   UNL     1      -1.862   1.147  -1.559  0.00  0.00    +0.151 C 
ATOM      6  C   UNL     1      -0.925   0.743  -0.421  0.00  0.00    +0.173 C 
ATOM      7  C   UNL     1      -0.146   1.922   0.168  0.00  0.00    +0.162 C 
ATOM      8  C   UNL     1       0.564   2.826  -0.880  0.00  0.00    +0.086 C 
BRANCH   7   9
ATOM      9  O   UNL     1       0.816   1.381   1.090  0.00  0.00    -0.388 OA
ATOM     10  H   UNL     1       1.538   2.041   1.114  0.00  0.00    +0.210 HD
ENDBRANCH   7   9
BRANCH   6  11
ATOM     11  O   UNL     1      -1.727   0.126   0.604  0.00  0.00    -0.387 OA
ATOM     12  H   UNL     1      -2.535   0.675   0.672  0.00  0.00    +0.210 HD
ENDBRANCH   6  11
BRANCH   5  13
ATOM     13  O   UNL     1      -2.393  -0.044  -2.149  0.00  0.00    -0.389 OA
ATOM     14  H   UNL     1      -3.138  -0.313  -1.571  0.00  0.00    +0.210 HD
ENDBRANCH   5  13
BRANCH   4  15
ATOM     15  C   UNL     1      -2.085   2.371  -3.749  0.00  0.00    +0.162 C 
BRANCH  15  16
ATOM     16  O   UNL     1      -2.063   1.405  -4.793  0.00  0.00    -0.395 OA
ATOM     17  H   UNL     1      -2.802   1.618  -5.390  0.00  0.00    +0.209 HD
ENDBRANCH  15  16
ENDBRANCH   4  15
ENDBRANCH   1   8
BRANCH   1  18
ATOM     18  C   UNL     1       2.912   3.244  -1.645  0.00  0.00    +0.109 C 
ATOM     19  C   UNL     1       2.369   4.612  -1.950  0.00  0.00    -0.002 C 
ATOM     20  C   UNL     1       2.511   5.708  -1.176  0.00  0.00    -0.016 C 
ATOM     21  C   UNL     1       3.130   5.631   0.201  0.00  0.00    +0.173 C 
ATOM     22  C   UNL     1       3.581   4.222   0.645  0.00  0.00    +0.177 C 
ATOM     23  C   UNL     1       4.011   3.353  -0.547  0.00  0.00    +0.166 C 
BRANCH  23  24
ATOM     24  O   UNL     1       4.421   2.050  -0.088  0.00  0.00    -0.387 OA
ATOM     25  H   UNL     1       5.362   2.105   0.154  0.00  0.00    +0.210 HD
ENDBRANCH  23  24
BRANCH  22  26
ATOM     26  O   UNL     1       4.697   4.350   1.550  0.00  0.00    -0.386 OA
ATOM     27  H   UNL     1       4.850   3.478   1.959  0.00  0.00    +0.210 HD
ENDBRANCH  22  26
BRANCH  21  28
ATOM     28  O   UNL     1       2.167   6.136   1.130  0.00  0.00    -0.385 OA
ATOM     29  H   UNL     1       1.304   5.755   0.887  0.00  0.00    +0.210 HD
ENDBRANCH  21  28
BRANCH  20  30
ATOM     30  C   UNL     1       2.152   7.113  -1.607  0.00  0.00    +0.189 C 
BRANCH  30  31
ATOM     31  O   UNL     1       2.927   8.087  -0.917  0.00  0.00    -0.391 OA
ATOM     32  H   UNL     1       3.781   8.143  -1.378  0.00  0.00    +0.210 HD
ENDBRANCH  30  31
ENDBRANCH  20  30
ENDBRANCH   1  18
TORSDOF 12
ENDMDL
MODEL 2
REMARK VINA RESULT:    -7.118      3.068      4.518
REMARK INTER + INTRA:         -11.205
REMARK INTER:                 -10.253
REMARK INTRA:                  -0.952
REMARK UNBOUND:                -0.759
REMARK  Name = 
REMARK  12 active torsions:
REMARK  status: ('A' for Active; 'I' for Inactive)
REMARK    1  A    between atoms: C_2  and  C_22
REMARK    2  A    between atoms: C_3  and  O_21
REMARK    3  A    between atoms: C_4  and  O_20
REMARK    4  A    between atoms: C_5  and  O_19
REMARK    5  A    between atoms: C_6  and  N_7
REMARK    6  A    between atoms: N_7  and  C_8
REMARK    7  A    between atoms: C_10  and  C_17
REMARK    8  A    between atoms: C_11  and  O_16
REMARK    9  A    between atoms: C_12  and  O_15
REMARK   10  A    between atoms: C_13  and  O_14
REMARK   11  A    between atoms: C_17  and  O_18
REMARK   12  A    between atoms: C_22  and  O_23
REMARK                            x       y       z     vdW  Elec       q    Type
REMARK                         _______ _______ _______ _____ _____    ______ ____
ROOT
ATOM      1  N   UNL     1       1.666   1.416  -1.187  0.00  0.00    -0.302 NA
ATOM      2  H   UNL     1       0.798   1.033  -1.578  0.00  0.00    +0.123 HD
ENDROOT
BRANCH   1   8
ATOM      3  C   UNL     1       1.328  -0.761   0.145  0.00  0.00    +0.029 C 
ATOM      4  C   UNL     1       1.207  -1.819  -0.968  0.00  0.00    +0.047 C 
ATOM      5  C   UNL     1       2.586  -2.360  -1.346  0.00  0.00    +0.151 C 
ATOM      6  C   UNL     1       3.536  -1.232  -1.748  0.00  0.00    +0.173 C 
ATOM      7  C   UNL     1       3.615  -0.110  -0.708  0.00  0.00    +0.162 C 
ATOM      8  C   UNL     1       2.239   0.429  -0.221  0.00  0.00    +0.086 C 
BRANCH   7   9
ATOM      9  O   UNL     1       4.389   0.955  -1.287  0.00  0.00    -0.388 OA
ATOM     10  H   UNL     1       5.049   0.505  -1.853  0.00  0.00    +0.210 HD
ENDBRANCH   7   9
BRANCH   6  11
ATOM     11  O   UNL     1       4.840  -1.809  -1.943  0.00  0.00    -0.387 OA
ATOM     12  H   UNL     1       5.180  -1.419  -2.774  0.00  0.00    +0.210 HD
ENDBRANCH   6  11
BRANCH   5  13
ATOM     13  O   UNL     1       2.452  -3.251  -2.459  0.00  0.00    -0.389 OA
ATOM     14  H   UNL     1       2.544  -4.153  -2.086  0.00  0.00    +0.210 HD
ENDBRANCH   5  13
BRANCH   4  15
ATOM     15  C   UNL     1       0.278  -2.963  -0.540  0.00  0.00    +0.162 C 
BRANCH  15  16
ATOM     16  O   UNL     1      -0.656  -3.240  -1.578  0.00  0.00    -0.395 OA
ATOM     17  H   UNL     1      -0.283  -2.870  -2.398  0.00  0.00    +0.209 HD
ENDBRANCH  15  16
ENDBRANCH   4  15
ENDBRANCH   1   8
BRANCH   1  18
ATOM     18  C   UNL     1       1.285   2.719  -0.571  0.00  0.00    +0.109 C 
ATOM     19  C   UNL     1       2.419   3.422   0.122  0.00  0.00    -0.002 C 
ATOM     20  C   UNL     1       3.011   4.561  -0.291  0.00  0.00    -0.016 C 
ATOM     21  C   UNL     1       2.678   5.189  -1.626  0.00  0.00    +0.173 C 
ATOM     22  C   UNL     1       1.621   4.436  -2.464  0.00  0.00    +0.177 C 
ATOM     23  C   UNL     1       0.609   3.692  -1.580  0.00  0.00    +0.166 C 
BRANCH  23  24
ATOM     24  O   UNL     1      -0.355   3.004  -2.402  0.00  0.00    -0.387 OA
ATOM     25  H   UNL     1      -0.945   2.504  -1.811  0.00  0.00    +0.210 HD
ENDBRANCH  23  24
BRANCH  22  26
ATOM     26  O   UNL     1       0.909   5.386  -3.284  0.00  0.00    -0.386 OA
ATOM     27  H   UNL     1       1.530   5.725  -3.953  0.00  0.00    +0.210 HD
ENDBRANCH  22  26
BRANCH  21  28
ATOM     28  O   UNL     1       3.896   5.282  -2.369  0.00  0.00    -0.385 OA
ATOM     29  H   UNL     1       4.597   5.538  -1.744  0.00  0.00    +0.210 HD
ENDBRANCH  21  28
BRANCH  20  30
ATOM     30  C   UNL     1       3.991   5.366   0.534  0.00  0.00    +0.189 C 
BRANCH  30  31
ATOM     31  O   UNL     1       5.338   5.049   0.205  0.00  0.00    -0.391 OA
ATOM     32  H   UNL     1       5.421   4.083   0.262  0.00  0.00    +0.210 HD
ENDBRANCH  30  31
ENDBRANCH  20  30
ENDBRANCH   1  18
TORSDOF 12
ENDMDL
MODEL 3
REMARK VINA RESULT:    -7.008      2.271      6.773
REMARK INTER + INTRA:         -11.044
REMARK INTER:                 -10.048
REMARK INTRA:                  -0.996
REMARK UNBOUND:                -0.759
REMARK  Name = 
REMARK  12 active torsions:
REMARK  status: ('A' for Active; 'I' for Inactive)
REMARK    1  A    between atoms: C_2  and  C_22
REMARK    2  A    between atoms: C_3  and  O_21
REMARK    3  A    between atoms: C_4  and  O_20
REMARK    4  A    between atoms: C_5  and  O_19
REMARK    5  A    between atoms: C_6  and  N_7
REMARK    6  A    between atoms: N_7  and  C_8
REMARK    7  A    between atoms: C_10  and  C_17
REMARK    8  A    between atoms: C_11  and  O_16
REMARK    9  A    between atoms: C_12  and  O_15
REMARK   10  A    between atoms: C_13  and  O_14
REMARK   11  A    between atoms: C_17  and  O_18
REMARK   12  A    between atoms: C_22  and  O_23
REMARK                            x       y       z     vdW  Elec       q    Type
REMARK                         _______ _______ _______ _____ _____    ______ ____
ROOT
ATOM      1  N   UNL     1       0.205   3.834  -2.690  0.00  0.00    -0.302 NA
ATOM      2  H   UNL     1       0.442   2.836  -2.687  0.00  0.00    +0.123 HD
ENDROOT
BRANCH   1   8
ATOM      3  C   UNL     1       1.563   3.542  -0.523  0.00  0.00    +0.029 C 
ATOM      4  C   UNL     1       2.915   3.016  -1.043  0.00  0.00    +0.047 C 
ATOM      5  C   UNL     1       3.850   4.180  -1.377  0.00  0.00    +0.151 C 
ATOM      6  C   UNL     1       3.204   5.145  -2.370  0.00  0.00    +0.173 C 
ATOM      7  C   UNL     1       1.815   5.621  -1.936  0.00  0.00    +0.162 C 
ATOM      8  C   UNL     1       0.841   4.487  -1.505  0.00  0.00    +0.086 C 
BRANCH   7   9
ATOM      9  O   UNL     1       1.256   6.366  -3.031  0.00  0.00    -0.388 OA
ATOM     10  H   UNL     1       1.283   5.750  -3.792  0.00  0.00    +0.210 HD
ENDBRANCH   7   9
BRANCH   6  11
ATOM     11  O   UNL     1       4.085   6.276  -2.513  0.00  0.00    -0.387 OA
ATOM     12  H   UNL     1       3.759   6.945  -1.878  0.00  0.00    +0.210 HD
ENDBRANCH   6  11
BRANCH   5  13
ATOM     13  O   UNL     1       5.048   3.664  -1.966  0.00  0.00    -0.389 OA
ATOM     14  H   UNL     1       4.759   3.191  -2.775  0.00  0.00    +0.210 HD
ENDBRANCH   5  13
BRANCH   4  15
ATOM     15  C   UNL     1       3.568   2.075  -0.023  0.00  0.00    +0.162 C 
BRANCH  15  16
ATOM     16  O   UNL     1       4.410   1.145  -0.695  0.00  0.00    -0.395 OA
ATOM     17  H   UNL     1       3.829   0.464  -1.077  0.00  0.00    +0.209 HD
ENDBRANCH  15  16
ENDBRANCH   4  15
ENDBRANCH   1   8
BRANCH   1  18
ATOM     18  C   UNL     1      -1.285   3.890  -2.688  0.00  0.00    +0.109 C 
ATOM     19  C   UNL     1      -1.857   4.975  -3.556  0.00  0.00    -0.002 C 
ATOM     20  C   UNL     1      -2.540   4.789  -4.705  0.00  0.00    -0.016 C 
ATOM     21  C   UNL     1      -2.674   3.421  -5.335  0.00  0.00    +0.173 C 
ATOM     22  C   UNL     1      -1.980   2.271  -4.570  0.00  0.00    +0.177 C 
ATOM     23  C   UNL     1      -1.943   2.527  -3.056  0.00  0.00    +0.166 C 
BRANCH  23  24
ATOM     24  O   UNL     1      -1.287   1.433  -2.385  0.00  0.00    -0.387 OA
ATOM     25  H   UNL     1      -1.538   0.612  -2.843  0.00  0.00    +0.210 HD
ENDBRANCH  23  24
BRANCH  22  26
ATOM     26  O   UNL     1      -2.700   1.045  -4.814  0.00  0.00    -0.386 OA
ATOM     27  H   UNL     1      -3.077   1.095  -5.712  0.00  0.00    +0.210 HD
ENDBRANCH  22  26
BRANCH  21  28
ATOM     28  O   UNL     1      -2.135   3.505  -6.656  0.00  0.00    -0.385 OA
ATOM     29  H   UNL     1      -1.267   3.065  -6.643  0.00  0.00    +0.210 HD
ENDBRANCH  21  28
BRANCH  20  30
ATOM     30  C   UNL     1      -3.295   5.875  -5.439  0.00  0.00    +0.189 C 
BRANCH  30  31
ATOM     31  O   UNL     1      -4.327   5.336  -6.256  0.00  0.00    -0.391 OA
ATOM     32  H   UNL     1      -4.651   6.062  -6.814  0.00  0.00    +0.210 HD
ENDBRANCH  30  31
ENDBRANCH  20  30
ENDBRANCH   1  18
TORSDOF 12
ENDMDL
MODEL 4
REMARK VINA RESULT:    -6.968      8.596     10.292
REMARK INTER + INTRA:         -10.985
REMARK INTER:                  -9.875
REMARK INTRA:                  -1.110
REMARK UNBOUND:                -0.759
REMARK  Name = 
REMARK  12 active torsions:
REMARK  status: ('A' for Active; 'I' for Inactive)
REMARK    1  A    between atoms: C_2  and  C_22
REMARK    2  A    between atoms: C_3  and  O_21
REMARK    3  A    between atoms: C_4  and  O_20
REMARK    4  A    between atoms: C_5  and  O_19
REMARK    5  A    between atoms: C_6  and  N_7
REMARK    6  A    between atoms: N_7  and  C_8
REMARK    7  A    between atoms: C_10  and  C_17
REMARK    8  A    between atoms: C_11  and  O_16
REMARK    9  A    between atoms: C_12  and  O_15
REMARK   10  A    between atoms: C_13  and  O_14
REMARK   11  A    between atoms: C_17  and  O_18
REMARK   12  A    between atoms: C_22  and  O_23
REMARK                            x       y       z     vdW  Elec       q    Type
REMARK                         _______ _______ _______ _____ _____    ______ ____
ROOT
ATOM      1  N   UNL     1      -4.991   0.414  -5.874  0.00  0.00    -0.302 NA
ATOM      2  H   UNL     1      -4.047   0.761  -6.072  0.00  0.00    +0.123 HD
ENDROOT
BRANCH   1   8
ATOM      3  C   UNL     1      -5.431   2.461  -7.372  0.00  0.00    +0.029 C 
ATOM      4  C   UNL     1      -4.525   2.187  -8.587  0.00  0.00    +0.047 C 
ATOM      5  C   UNL     1      -5.272   1.361  -9.636  0.00  0.00    +0.151 C 
ATOM      6  C   UNL     1      -5.816   0.063  -9.038  0.00  0.00    +0.173 C 
ATOM      7  C   UNL     1      -6.646   0.283  -7.770  0.00  0.00    +0.162 C 
ATOM      8  C   UNL     1      -5.974   1.185  -6.696  0.00  0.00    +0.086 C 
BRANCH   7   9
ATOM      9  O   UNL     1      -6.937  -1.013  -7.220  0.00  0.00    -0.388 OA
ATOM     10  H   UNL     1      -6.345  -1.628  -7.702  0.00  0.00    +0.210 HD
ENDBRANCH   7   9
BRANCH   6  11
ATOM     11  O   UNL     1      -6.622  -0.576 -10.046  0.00  0.00    -0.387 OA
ATOM     12  H   UNL     1      -6.357  -0.167 -10.895  0.00  0.00    +0.210 HD
ENDBRANCH   6  11
BRANCH   5  13
ATOM     13  O   UNL     1      -4.371   1.024 -10.696  0.00  0.00    -0.389 OA
ATOM     14  H   UNL     1      -3.720   0.407 -10.300  0.00  0.00    +0.210 HD
ENDBRANCH   5  13
BRANCH   4  15
ATOM     15  C   UNL     1      -4.014   3.498  -9.198  0.00  0.00    +0.162 C 
BRANCH  15  16
ATOM     16  O   UNL     1      -2.851   3.243  -9.979  0.00  0.00    -0.395 OA
ATOM     17  H   UNL     1      -3.152   2.824 -10.805  0.00  0.00    +0.209 HD
ENDBRANCH  15  16
ENDBRANCH   4  15
ENDBRANCH   1   8
BRANCH   1  18
ATOM     18  C   UNL     1      -5.173   0.573  -4.403  0.00  0.00    +0.109 C 
ATOM     19  C   UNL     1      -5.550   1.966  -3.981  0.00  0.00    -0.002 C 
ATOM     20  C   UNL     1      -6.747   2.345  -3.488  0.00  0.00    -0.016 C 
ATOM     21  C   UNL     1      -7.924   1.397  -3.448  0.00  0.00    +0.173 C 
ATOM     22  C   UNL     1      -7.651  -0.019  -4.005  0.00  0.00    +0.177 C 
ATOM     23  C   UNL     1      -6.189  -0.444  -3.804  0.00  0.00    +0.166 C 
BRANCH  23  24
ATOM     24  O   UNL     1      -5.980  -1.766  -4.339  0.00  0.00    -0.387 OA
ATOM     25  H   UNL     1      -6.473  -2.392  -3.781  0.00  0.00    +0.210 HD
ENDBRANCH  23  24
BRANCH  22  26
ATOM     26  O   UNL     1      -8.505  -0.962  -3.327  0.00  0.00    -0.386 OA
ATOM     27  H   UNL     1      -8.245  -0.977  -2.387  0.00  0.00    +0.210 HD
ENDBRANCH  22  26
BRANCH  21  28
ATOM     28  O   UNL     1      -8.985   2.003  -4.190  0.00  0.00    -0.385 OA
ATOM     29  H   UNL     1      -8.928   2.963  -4.044  0.00  0.00    +0.210 HD
ENDBRANCH  21  28
BRANCH  20  30
ATOM     30  C   UNL     1      -7.029   3.694  -2.864  0.00  0.00    +0.189 C 
BRANCH  30  31
ATOM     31  O   UNL     1      -8.236   3.682  -2.112  0.00  0.00    -0.391 OA
ATOM     32  H   UNL     1      -8.083   3.104  -1.346  0.00  0.00    +0.210 HD
ENDBRANCH  30  31
ENDBRANCH  20  30
ENDBRANCH   1  18
TORSDOF 12
ENDMDL
MODEL 5
REMARK VINA RESULT:    -6.889      7.994     10.792
REMARK INTER + INTRA:         -10.870
REMARK INTER:                  -9.893
REMARK INTRA:                  -0.977
REMARK UNBOUND:                -0.759
REMARK  Name = 
REMARK  12 active torsions:
REMARK  status: ('A' for Active; 'I' for Inactive)
REMARK    1  A    between atoms: C_2  and  C_22
REMARK    2  A    between atoms: C_3  and  O_21
REMARK    3  A    between atoms: C_4  and  O_20
REMARK    4  A    between atoms: C_5  and  O_19
REMARK    5  A    between atoms: C_6  and  N_7
REMARK    6  A    between atoms: N_7  and  C_8
REMARK    7  A    between atoms: C_10  and  C_17
REMARK    8  A    between atoms: C_11  and  O_16
REMARK    9  A    between atoms: C_12  and  O_15
REMARK   10  A    between atoms: C_13  and  O_14
REMARK   11  A    between atoms: C_17  and  O_18
REMARK   12  A    between atoms: C_22  and  O_23
REMARK                            x       y       z     vdW  Elec       q    Type
REMARK                         _______ _______ _______ _____ _____    ______ ____
ROOT
ATOM      1  N   UNL     1      -7.679   4.501  -2.931  0.00  0.00    -0.302 NA
ATOM      2  H   UNL     1      -8.230   5.167  -3.482  0.00  0.00    +0.123 HD
ENDROOT
BRANCH   1   8
ATOM      3  C   UNL     1      -6.091   6.497  -2.583  0.00  0.00    +0.029 C 
ATOM      4  C   UNL     1      -7.022   7.706  -2.795  0.00  0.00    +0.047 C 
ATOM      5  C   UNL     1      -7.686   8.109  -1.477  0.00  0.00    +0.151 C 
ATOM      6  C   UNL     1      -8.431   6.931  -0.847  0.00  0.00    +0.173 C 
ATOM      7  C   UNL     1      -7.566   5.676  -0.703  0.00  0.00    +0.162 C 
ATOM      8  C   UNL     1      -6.797   5.261  -1.991  0.00  0.00    +0.086 C 
BRANCH   7   9
ATOM      9  O   UNL     1      -8.429   4.609  -0.274  0.00  0.00    -0.388 OA
ATOM     10  H   UNL     1      -7.826   3.940   0.112  0.00  0.00    +0.210 HD
ENDBRANCH   7   9
BRANCH   6  11
ATOM     11  O   UNL     1      -8.896   7.354   0.449  0.00  0.00    -0.387 OA
ATOM     12  H   UNL     1      -8.901   6.547   1.003  0.00  0.00    +0.210 HD
ENDBRANCH   6  11
BRANCH   5  13
ATOM     13  O   UNL     1      -8.631   9.154  -1.728  0.00  0.00    -0.389 OA
ATOM     14  H   UNL     1      -8.913   9.034  -2.659  0.00  0.00    +0.210 HD
ENDBRANCH   5  13
BRANCH   4  15
ATOM     15  C   UNL     1      -6.256   8.892  -3.396  0.00  0.00    +0.162 C 
BRANCH  15  16
ATOM     16  O   UNL     1      -5.957   9.839  -2.376  0.00  0.00    -0.395 OA
ATOM     17  H   UNL     1      -5.006  10.037  -2.445  0.00  0.00    +0.209 HD
ENDBRANCH  15  16
ENDBRANCH   4  15
ENDBRANCH   1   8
BRANCH   1  18
ATOM     18  C   UNL     1      -6.936   3.678  -3.928  0.00  0.00    +0.109 C 
ATOM     19  C   UNL     1      -6.143   2.553  -3.324  0.00  0.00    -0.002 C 
ATOM     20  C   UNL     1      -6.417   1.238  -3.449  0.00  0.00    -0.016 C 
ATOM     21  C   UNL     1      -7.685   0.752  -4.115  0.00  0.00    +0.173 C 
ATOM     22  C   UNL     1      -8.626   1.863  -4.633  0.00  0.00    +0.177 C 
ATOM     23  C   UNL     1      -7.853   3.121  -5.057  0.00  0.00    +0.166 C 
BRANCH  23  24
ATOM     24  O   UNL     1      -8.768   4.129  -5.530  0.00  0.00    -0.387 OA
ATOM     25  H   UNL     1      -9.599   4.030  -5.034  0.00  0.00    +0.210 HD
ENDBRANCH  23  24
BRANCH  22  26
ATOM     26  O   UNL     1      -9.357   1.364  -5.772  0.00  0.00    -0.386 OA
ATOM     27  H   UNL     1      -8.972   0.503  -6.019  0.00  0.00    +0.210 HD
ENDBRANCH  22  26
BRANCH  21  28
ATOM     28  O   UNL     1      -8.383  -0.056  -3.164  0.00  0.00    -0.385 OA
ATOM     29  H   UNL     1      -8.552  -0.917  -3.585  0.00  0.00    +0.210 HD
ENDBRANCH  21  28
BRANCH  20  30
ATOM     30  C   UNL     1      -5.486   0.124  -3.024  0.00  0.00    +0.189 C 
BRANCH  30  31
ATOM     31  O   UNL     1      -5.817  -0.372  -1.732  0.00  0.00    -0.391 OA
ATOM     32  H   UNL     1      -5.614   0.337  -1.100  0.00  0.00    +0.210 HD
ENDBRANCH  30  31
ENDBRANCH  20  30
ENDBRANCH   1  18
TORSDOF 12
ENDMDL
MODEL 6
REMARK VINA RESULT:    -6.880      7.976     10.634
REMARK INTER + INTRA:         -10.856
REMARK INTER:                  -9.784
REMARK INTRA:                  -1.072
REMARK UNBOUND:                -0.759
REMARK  Name = 
REMARK  12 active torsions:
REMARK  status: ('A' for Active; 'I' for Inactive)
REMARK    1  A    between atoms: C_2  and  C_22
REMARK    2  A    between atoms: C_3  and  O_21
REMARK    3  A    between atoms: C_4  and  O_20
REMARK    4  A    between atoms: C_5  and  O_19
REMARK    5  A    between atoms: C_6  and  N_7
REMARK    6  A    between atoms: N_7  and  C_8
REMARK    7  A    between atoms: C_10  and  C_17
REMARK    8  A    between atoms: C_11  and  O_16
REMARK    9  A    between atoms: C_12  and  O_15
REMARK   10  A    between atoms: C_13  and  O_14
REMARK   11  A    between atoms: C_17  and  O_18
REMARK   12  A    between atoms: C_22  and  O_23
REMARK                            x       y       z     vdW  Elec       q    Type
REMARK                         _______ _______ _______ _____ _____    ______ ____
ROOT
ATOM      1  N   UNL     1      -5.247   6.122  -3.429  0.00  0.00    -0.302 NA
ATOM      2  H   UNL     1      -5.031   6.203  -2.430  0.00  0.00    +0.123 HD
ENDROOT
BRANCH   1   8
ATOM      3  C   UNL     1      -7.571   6.514  -2.394  0.00  0.00    +0.029 C 
ATOM      4  C   UNL     1      -7.323   7.714  -1.460  0.00  0.00    +0.047 C 
ATOM      5  C   UNL     1      -7.526   9.030  -2.214  0.00  0.00    +0.151 C 
ATOM      6  C   UNL     1      -6.645   9.098  -3.461  0.00  0.00    +0.173 C 
ATOM      7  C   UNL     1      -6.791   7.876  -4.373  0.00  0.00    +0.162 C 
ATOM      8  C   UNL     1      -6.676   6.504  -3.649  0.00  0.00    +0.086 C 
BRANCH   7   9
ATOM      9  O   UNL     1      -5.787   7.985  -5.396  0.00  0.00    -0.388 OA
ATOM     10  H   UNL     1      -5.036   7.450  -5.068  0.00  0.00    +0.210 HD
ENDBRANCH   7   9
BRANCH   6  11
ATOM     11  O   UNL     1      -7.004  10.292  -4.182  0.00  0.00    -0.387 OA
ATOM     12  H   UNL     1      -7.136  10.009  -5.110  0.00  0.00    +0.210 HD
ENDBRANCH   6  11
BRANCH   5  13
ATOM     13  O   UNL     1      -7.175  10.120  -1.355  0.00  0.00    -0.389 OA
ATOM     14  H   UNL     1      -7.868  10.799  -1.497  0.00  0.00    +0.210 HD
ENDBRANCH   5  13
BRANCH   4  15
ATOM     15  C   UNL     1      -8.237   7.651  -0.229  0.00  0.00    +0.162 C 
BRANCH  15  16
ATOM     16  O   UNL     1      -9.211   8.686  -0.300  0.00  0.00    -0.395 OA
ATOM     17  H   UNL     1      -9.796   8.576   0.470  0.00  0.00    +0.209 HD
ENDBRANCH  15  16
ENDBRANCH   4  15
ENDBRANCH   1   8
BRANCH   1  18
ATOM     18  C   UNL     1      -4.933   4.709  -3.790  0.00  0.00    +0.109 C 
ATOM     19  C   UNL     1      -5.838   3.698  -3.144  0.00  0.00    -0.002 C 
ATOM     20  C   UNL     1      -6.760   2.945  -3.777  0.00  0.00    -0.016 C 
ATOM     21  C   UNL     1      -7.091   3.158  -5.237  0.00  0.00    +0.173 C 
ATOM     22  C   UNL     1      -6.301   4.287  -5.935  0.00  0.00    +0.177 C 
ATOM     23  C   UNL     1      -4.901   4.470  -5.329  0.00  0.00    +0.166 C 
BRANCH  23  24
ATOM     24  O   UNL     1      -4.202   5.533  -6.007  0.00  0.00    -0.387 OA
ATOM     25  H   UNL     1      -3.460   5.807  -5.441  0.00  0.00    +0.210 HD
ENDBRANCH  23  24
BRANCH  22  26
ATOM     26  O   UNL     1      -6.160   3.966  -7.334  0.00  0.00    -0.386 OA
ATOM     27  H   UNL     1      -5.324   4.356  -7.647  0.00  0.00    +0.210 HD
ENDBRANCH  22  26
BRANCH  21  28
ATOM     28  O   UNL     1      -8.491   3.436  -5.320  0.00  0.00    -0.385 OA
ATOM     29  H   UNL     1      -8.818   3.548  -4.410  0.00  0.00    +0.210 HD
ENDBRANCH  21  28
BRANCH  20  30
ATOM     30  C   UNL     1      -7.496   1.782  -3.148  0.00  0.00    +0.189 C 
BRANCH  30  31
ATOM     31  O   UNL     1      -8.778   2.170  -2.670  0.00  0.00    -0.391 OA
ATOM     32  H   UNL     1      -8.995   3.013  -3.102  0.00  0.00    +0.210 HD
ENDBRANCH  30  31
ENDBRANCH  20  30
ENDBRANCH   1  18
TORSDOF 12
ENDMDL
MODEL 7
REMARK VINA RESULT:    -6.858      5.284      8.260
REMARK INTER + INTRA:         -10.824
REMARK INTER:                 -10.145
REMARK INTRA:                  -0.679
REMARK UNBOUND:                -0.759
REMARK  Name = 
REMARK  12 active torsions:
REMARK  status: ('A' for Active; 'I' for Inactive)
REMARK    1  A    between atoms: C_2  and  C_22
REMARK    2  A    between atoms: C_3  and  O_21
REMARK    3  A    between atoms: C_4  and  O_20
REMARK    4  A    between atoms: C_5  and  O_19
REMARK    5  A    between atoms: C_6  and  N_7
REMARK    6  A    between atoms: N_7  and  C_8
REMARK    7  A    between atoms: C_10  and  C_17
REMARK    8  A    between atoms: C_11  and  O_16
REMARK    9  A    between atoms: C_12  and  O_15
REMARK   10  A    between atoms: C_13  and  O_14
REMARK   11  A    between atoms: C_17  and  O_18
REMARK   12  A    between atoms: C_22  and  O_23
REMARK                            x       y       z     vdW  Elec       q    Type
REMARK                         _______ _______ _______ _____ _____    ______ ____
ROOT
ATOM      1  N   UNL     1      -4.765   4.669  -1.497  0.00  0.00    -0.302 NA
ATOM      2  H   UNL     1      -4.421   4.660  -0.531  0.00  0.00    +0.123 HD
ENDROOT
BRANCH   1   8
ATOM      3  C   UNL     1      -2.335   5.226  -2.139  0.00  0.00    +0.029 C 
ATOM      4  C   UNL     1      -1.544   4.730  -0.914  0.00  0.00    +0.047 C 
ATOM      5  C   UNL     1      -1.165   3.258  -1.081  0.00  0.00    +0.151 C 
ATOM      6  C   UNL     1      -2.397   2.392  -1.340  0.00  0.00    +0.173 C 
ATOM      7  C   UNL     1      -3.265   2.904  -2.493  0.00  0.00    +0.162 C 
ATOM      8  C   UNL     1      -3.618   4.418  -2.423  0.00  0.00    +0.086 C 
BRANCH   7   9
ATOM      9  O   UNL     1      -4.467   2.114  -2.507  0.00  0.00    -0.388 OA
ATOM     10  H   UNL     1      -4.412   1.562  -1.700  0.00  0.00    +0.210 HD
ENDBRANCH   7   9
BRANCH   6  11
ATOM     11  O   UNL     1      -1.939   1.058  -1.629  0.00  0.00    -0.387 OA
ATOM     12  H   UNL     1      -2.192   0.889  -2.559  0.00  0.00    +0.210 HD
ENDBRANCH   6  11
BRANCH   5  13
ATOM     13  O   UNL     1      -0.536   2.797   0.120  0.00  0.00    -0.389 OA
ATOM     14  H   UNL     1      -0.974   1.946   0.335  0.00  0.00    +0.210 HD
ENDBRANCH   5  13
BRANCH   4  15
ATOM     15  C   UNL     1      -0.291   5.587  -0.685  0.00  0.00    +0.162 C 
BRANCH  15  16
ATOM     16  O   UNL     1      -0.148   5.869   0.703  0.00  0.00    -0.395 OA
ATOM     17  H   UNL     1      -0.223   6.835   0.803  0.00  0.00    +0.209 HD
ENDBRANCH  15  16
ENDBRANCH   4  15
ENDBRANCH   1   8
BRANCH   1  18
ATOM     18  C   UNL     1      -5.411   6.001  -1.677  0.00  0.00    +0.109 C 
ATOM     19  C   UNL     1      -5.392   6.503  -3.094  0.00  0.00    -0.002 C 
ATOM     20  C   UNL     1      -6.464   6.627  -3.902  0.00  0.00    -0.016 C 
ATOM     21  C   UNL     1      -7.827   6.114  -3.495  0.00  0.00    +0.173 C 
ATOM     22  C   UNL     1      -7.893   5.448  -2.102  0.00  0.00    +0.177 C 
ATOM     23  C   UNL     1      -6.867   6.048  -1.129  0.00  0.00    +0.166 C 
BRANCH  23  24
ATOM     24  O   UNL     1      -6.962   5.397   0.154  0.00  0.00    -0.387 OA
ATOM     25  H   UNL     1      -7.535   5.943   0.721  0.00  0.00    +0.210 HD
ENDBRANCH  23  24
BRANCH  22  26
ATOM     26  O   UNL     1      -9.214   5.635  -1.555  0.00  0.00    -0.386 OA
ATOM     27  H   UNL     1      -9.378   4.914  -0.919  0.00  0.00    +0.210 HD
ENDBRANCH  22  26
BRANCH  21  28
ATOM     28  O   UNL     1      -8.244   5.175  -4.490  0.00  0.00    -0.385 OA
ATOM     29  H   UNL     1      -8.149   5.611  -5.355  0.00  0.00    +0.210 HD
ENDBRANCH  21  28
BRANCH  20  30
ATOM     30  C   UNL     1      -6.455   7.341  -5.236  0.00  0.00    +0.189 C 
BRANCH  30  31
ATOM     31  O   UNL     1      -6.350   8.750  -5.077  0.00  0.00    -0.391 OA
ATOM     32  H   UNL     1      -7.038   9.012  -4.443  0.00  0.00    +0.210 HD
ENDBRANCH  30  31
ENDBRANCH  20  30
ENDBRANCH   1  18
TORSDOF 12
ENDMDL
MODEL 8
REMARK VINA RESULT:    -6.844      6.510      8.692
REMARK INTER + INTRA:         -10.804
REMARK INTER:                  -9.846
REMARK INTRA:                  -0.958
REMARK UNBOUND:                -0.759
REMARK  Name = 
REMARK  12 active torsions:
REMARK  status: ('A' for Active; 'I' for Inactive)
REMARK    1  A    between atoms: C_2  and  C_22
REMARK    2  A    between atoms: C_3  and  O_21
REMARK    3  A    between atoms: C_4  and  O_20
REMARK    4  A    between atoms: C_5  and  O_19
REMARK    5  A    between atoms: C_6  and  N_7
REMARK    6  A    between atoms: N_7  and  C_8
REMARK    7  A    between atoms: C_10  and  C_17
REMARK    8  A    between atoms: C_11  and  O_16
REMARK    9  A    between atoms: C_12  and  O_15
REMARK   10  A    between atoms: C_13  and  O_14
REMARK   11  A    between atoms: C_17  and  O_18
REMARK   12  A    between atoms: C_22  and  O_23
REMARK                            x       y       z     vdW  Elec       q    Type
REMARK                         _______ _______ _______ _____ _____    ______ ____
ROOT
ATOM      1  N   UNL     1      -5.051   6.123  -3.284  0.00  0.00    -0.302 NA
ATOM      2  H   UNL     1      -4.844   6.348  -2.305  0.00  0.00    +0.123 HD
ENDROOT
BRANCH   1   8
ATOM      3  C   UNL     1      -7.437   6.330  -2.338  0.00  0.00    +0.029 C 
ATOM      4  C   UNL     1      -7.308   7.515  -1.362  0.00  0.00    +0.047 C 
ATOM      5  C   UNL     1      -7.567   8.837  -2.086  0.00  0.00    +0.151 C 
ATOM      6  C   UNL     1      -6.642   9.001  -3.292  0.00  0.00    +0.173 C 
ATOM      7  C   UNL     1      -6.669   7.801  -4.243  0.00  0.00    +0.162 C 
ATOM      8  C   UNL     1      -6.492   6.417  -3.554  0.00  0.00    +0.086 C 
BRANCH   7   9
ATOM      9  O   UNL     1      -5.634   8.006  -5.220  0.00  0.00    -0.388 OA
ATOM     10  H   UNL     1      -5.592   8.978  -5.339  0.00  0.00    +0.210 HD
ENDBRANCH   7   9
BRANCH   6  11
ATOM     11  O   UNL     1      -7.050  10.190  -3.995  0.00  0.00    -0.387 OA
ATOM     12  H   UNL     1      -7.375   9.883  -4.865  0.00  0.00    +0.210 HD
ENDBRANCH   6  11
BRANCH   5  13
ATOM     13  O   UNL     1      -7.325   9.921  -1.183  0.00  0.00    -0.389 OA
ATOM     14  H   UNL     1      -7.838   9.709  -0.375  0.00  0.00    +0.210 HD
ENDBRANCH   5  13
BRANCH   4  15
ATOM     15  C   UNL     1      -8.266   7.355  -0.174  0.00  0.00    +0.162 C 
BRANCH  15  16
ATOM     16  O   UNL     1      -9.296   8.334  -0.250  0.00  0.00    -0.395 OA
ATOM     17  H   UNL     1     -10.140   7.863  -0.136  0.00  0.00    +0.209 HD
ENDBRANCH  15  16
ENDBRANCH   4  15
ENDBRANCH   1   8
BRANCH   1  18
ATOM     18  C   UNL     1      -4.684   4.687  -3.448  0.00  0.00    +0.109 C 
ATOM     19  C   UNL     1      -3.825   4.410  -4.650  0.00  0.00    -0.002 C 
ATOM     20  C   UNL     1      -2.528   4.040  -4.625  0.00  0.00    -0.016 C 
ATOM     21  C   UNL     1      -1.737   4.010  -3.336  0.00  0.00    +0.173 C 
ATOM     22  C   UNL     1      -2.519   4.428  -2.071  0.00  0.00    +0.177 C 
ATOM     23  C   UNL     1      -4.013   4.084  -2.179  0.00  0.00    +0.166 C 
BRANCH  23  24
ATOM     24  O   UNL     1      -4.702   4.493  -0.981  0.00  0.00    -0.387 OA
ATOM     25  H   UNL     1      -5.383   3.824  -0.789  0.00  0.00    +0.210 HD
ENDBRANCH  23  24
BRANCH  22  26
ATOM     26  O   UNL     1      -1.967   3.740  -0.930  0.00  0.00    -0.386 OA
ATOM     27  H   UNL     1      -2.199   2.796  -1.011  0.00  0.00    +0.210 HD
ENDBRANCH  22  26
BRANCH  21  28
ATOM     28  O   UNL     1      -0.612   4.876  -3.507  0.00  0.00    -0.385 OA
ATOM     29  H   UNL     1      -0.318   4.790  -4.430  0.00  0.00    +0.210 HD
ENDBRANCH  21  28
BRANCH  20  30
ATOM     30  C   UNL     1      -1.752   3.552  -5.828  0.00  0.00    +0.189 C 
BRANCH  30  31
ATOM     31  O   UNL     1      -0.513   2.964  -5.451  0.00  0.00    -0.391 OA
ATOM     32  H   UNL     1       0.173   3.381  -5.998  0.00  0.00    +0.210 HD
ENDBRANCH  30  31
ENDBRANCH  20  30
ENDBRANCH   1  18
TORSDOF 12
ENDMDL
MODEL 9
REMARK VINA RESULT:    -6.840      1.931      6.310
REMARK INTER + INTRA:         -10.797
REMARK INTER:                  -9.704
REMARK INTRA:                  -1.093
REMARK UNBOUND:                -0.759
REMARK  Name = 
REMARK  12 active torsions:
REMARK  status: ('A' for Active; 'I' for Inactive)
REMARK    1  A    between atoms: C_2  and  C_22
REMARK    2  A    between atoms: C_3  and  O_21
REMARK    3  A    between atoms: C_4  and  O_20
REMARK    4  A    between atoms: C_5  and  O_19
REMARK    5  A    between atoms: C_6  and  N_7
REMARK    6  A    between atoms: N_7  and  C_8
REMARK    7  A    between atoms: C_10  and  C_17
REMARK    8  A    between atoms: C_11  and  O_16
REMARK    9  A    between atoms: C_12  and  O_15
REMARK   10  A    between atoms: C_13  and  O_14
REMARK   11  A    between atoms: C_17  and  O_18
REMARK   12  A    between atoms: C_22  and  O_23
REMARK                            x       y       z     vdW  Elec       q    Type
REMARK                         _______ _______ _______ _____ _____    ______ ____
ROOT
ATOM      1  N   UNL     1      -0.709   4.711  -0.790  0.00  0.00    -0.302 NA
ATOM      2  H   UNL     1      -0.679   5.710  -0.561  0.00  0.00    +0.123 HD
ENDROOT
BRANCH   1   8
ATOM      3  C   UNL     1       1.153   5.592  -2.334  0.00  0.00    +0.029 C 
ATOM      4  C   UNL     1       2.055   6.371  -1.358  0.00  0.00    +0.047 C 
ATOM      5  C   UNL     1       3.110   5.445  -0.749  0.00  0.00    +0.151 C 
ATOM      6  C   UNL     1       2.465   4.236  -0.072  0.00  0.00    +0.173 C 
ATOM      7  C   UNL     1       1.485   3.486  -0.980  0.00  0.00    +0.162 C 
ATOM      8  C   UNL     1       0.436   4.385  -1.695  0.00  0.00    +0.086 C 
BRANCH   7   9
ATOM      9  O   UNL     1       0.825   2.498  -0.171  0.00  0.00    -0.388 OA
ATOM     10  H   UNL     1       0.705   2.928   0.701  0.00  0.00    +0.210 HD
ENDBRANCH   7   9
BRANCH   6  11
ATOM     11  O   UNL     1       3.524   3.351   0.340  0.00  0.00    -0.387 OA
ATOM     12  H   UNL     1       3.274   3.040   1.234  0.00  0.00    +0.210 HD
ENDBRANCH   6  11
BRANCH   5  13
ATOM     13  O   UNL     1       3.855   6.168   0.237  0.00  0.00    -0.389 OA
ATOM     14  H   UNL     1       3.737   7.115   0.012  0.00  0.00    +0.210 HD
ENDBRANCH   5  13
BRANCH   4  15
ATOM     15  C   UNL     1       2.724   7.562  -2.058  0.00  0.00    +0.162 C 
BRANCH  15  16
ATOM     16  O   UNL     1       2.847   8.648  -1.147  0.00  0.00    -0.395 OA
ATOM     17  H   UNL     1       1.983   9.097  -1.126  0.00  0.00    +0.209 HD
ENDBRANCH  15  16
ENDBRANCH   4  15
ENDBRANCH   1   8
BRANCH   1  18
ATOM     18  C   UNL     1      -2.050   4.483  -1.403  0.00  0.00    +0.109 C 
ATOM     19  C   UNL     1      -2.232   5.146  -2.739  0.00  0.00    -0.002 C 
ATOM     20  C   UNL     1      -2.330   4.515  -3.927  0.00  0.00    -0.016 C 
ATOM     21  C   UNL     1      -2.111   3.024  -4.052  0.00  0.00    +0.173 C 
ATOM     22  C   UNL     1      -1.772   2.293  -2.734  0.00  0.00    +0.177 C 
ATOM     23  C   UNL     1      -2.415   2.974  -1.517  0.00  0.00    +0.166 C 
BRANCH  23  24
ATOM     24  O   UNL     1      -2.072   2.261  -0.312  0.00  0.00    -0.387 OA
ATOM     25  H   UNL     1      -2.047   1.312  -0.526  0.00  0.00    +0.210 HD
ENDBRANCH  23  24
BRANCH  22  26
ATOM     26  O   UNL     1      -2.254   0.935  -2.813  0.00  0.00    -0.386 OA
ATOM     27  H   UNL     1      -2.719   0.736  -1.980  0.00  0.00    +0.210 HD
ENDBRANCH  22  26
BRANCH  21  28
ATOM     28  O   UNL     1      -1.051   2.826  -4.991  0.00  0.00    -0.385 OA
ATOM     29  H   UNL     1      -1.103   3.548  -5.642  0.00  0.00    +0.210 HD
ENDBRANCH  21  28
BRANCH  20  30
ATOM     30  C   UNL     1      -2.736   5.183  -5.222  0.00  0.00    +0.189 C 
BRANCH  30  31
ATOM     31  O   UNL     1      -3.066   4.228  -6.224  0.00  0.00    -0.391 OA
ATOM     32  H   UNL     1      -3.267   4.729  -7.032  0.00  0.00    +0.210 HD
ENDBRANCH  30  31
ENDBRANCH  20  30
ENDBRANCH   1  18
TORSDOF 12
ENDMDL
