MODEL 1
REMARK VINA RESULT:    -7.016      0.000      0.000
REMARK INTER + INTRA:         -10.774
REMARK INTER:                 -10.093
REMARK INTRA:                  -0.681
REMARK UNBOUND:                -0.681
REMARK  Name = 
REMARK  11 active torsions:
REMARK  status: ('A' for Active; 'I' for Inactive)
REMARK    1  A    between atoms: C_1  and  O_2
REMARK    2  A    between atoms: O_2  and  C_3
REMARK    3  A    between atoms: C_5  and  C_21
REMARK    4  A    between atoms: C_7  and  C_10
REMARK    5  A    between atoms: C_8  and  O_9
REMARK    6  A    between atoms: C_11  and  C_12
REMARK    7  A    between atoms: C_14  and  O_19
REMARK    8  A    between atoms: C_15  and  O_18
REMARK    9  A    between atoms: O_19  and  C_20
REMARK   10  A    between atoms: C_22  and  C_23
REMARK   11  A    between atoms: C_23  and  O_25
REMARK                            x       y       z     vdW  Elec       q    Type
REMARK                         _______ _______ _______ _____ _____    ______ ____
ROOT
ATOM      3  C   UNL     1     141.189 137.985 142.849  0.00  0.00    +0.000 A 
ATOM      4  C   UNL     1     139.932 137.561 143.292  0.00  0.00    +0.000 A 
ATOM      5  C   UNL     1     138.840 137.488 142.413  0.00  0.00    +0.000 A 
ATOM      6  C   UNL     1     139.036 137.806 141.059  0.00  0.00    +0.000 A 
ATOM      7  C   UNL     1     140.290 138.223 140.585  0.00  0.00    +0.000 A 
ATOM      8  C   UNL     1     141.357 138.322 141.495  0.00  0.00    +0.000 A 
ENDROOT
BRANCH   3   2
ATOM      1  C   UNL     1     142.911 136.882 144.089  0.00  0.00    +0.000 C 
ATOM      2  O   UNL     1     142.299 138.086 143.648  0.00  0.00    +0.000 OA
ENDBRANCH   3   2
BRANCH   8   9
ATOM      9  O   UNL     1     142.606 138.729 141.089  0.00  0.00    +0.000 OA
ATOM     26  H   UNL     1     143.274 138.181 141.531  0.00  0.00    +0.000 HD
ENDBRANCH   8   9
BRANCH   7  10
ATOM     10  C   UNL     1     140.457 138.487 139.147  0.00  0.00    +0.000 C 
ATOM     11  C   UNL     1     140.980 137.594 138.290  0.00  0.00    +0.000 C 
BRANCH  11  12
ATOM     12  C   UNL     1     141.113 137.814 136.836  0.00  0.00    +0.000 A 
ATOM     13  C   UNL     1     140.014 138.048 135.993  0.00  0.00    +0.000 A 
ATOM     14  C   UNL     1     140.152 138.263 134.605  0.00  0.00    +0.000 A 
ATOM     15  C   UNL     1     141.438 138.249 134.063  0.00  0.00    +0.000 A 
ATOM     16  C   UNL     1     142.545 138.038 134.893  0.00  0.00    +0.000 A 
ATOM     17  C   UNL     1     142.387 137.832 136.266  0.00  0.00    +0.000 A 
BRANCH  15  18
ATOM     18  O   UNL     1     141.774 138.418 132.750  0.00  0.00    +0.000 OA
ATOM     27  H   UNL     1     141.267 137.813 132.197  0.00  0.00    +0.000 HD
ENDBRANCH  15  18
BRANCH  14  19
ATOM     19  O   UNL     1     138.938 138.445 134.009  0.00  0.00    +0.000 OA
ATOM     20  C   UNL     1     137.765 137.835 134.512  0.00  0.00    +0.000 C 
ENDBRANCH  14  19
ENDBRANCH  11  12
ENDBRANCH   7  10
BRANCH   5  21
ATOM     21  C   UNL     1     137.516 137.018 142.858  0.00  0.00    +0.000 C 
ATOM     22  C   UNL     1     136.577 136.511 142.041  0.00  0.00    +0.000 C 
BRANCH  22  23
ATOM     23  C   UNL     1     135.284 136.071 142.601  0.00  0.00    +0.000 C 
ATOM     24  O   UNL     1     134.228 136.667 142.463  0.00  0.00    +0.000 OA
BRANCH  23  25
ATOM     25  O   UNL     1     135.393 134.915 143.284  0.00  0.00    +0.000 OA
ATOM     28  H   UNL     1     136.300 134.585 143.415  0.00  0.00    +0.000 HD
ENDBRANCH  23  25
ENDBRANCH  22  23
ENDBRANCH   5  21
TORSDOF 9
ENDMDL
MODEL 2
REMARK VINA RESULT:    -6.941      2.806      8.707
REMARK INTER + INTRA:         -10.665
REMARK INTER:                  -9.982
REMARK INTRA:                  -0.683
REMARK UNBOUND:                -0.681
REMARK  Name = 
REMARK  11 active torsions:
REMARK  status: ('A' for Active; 'I' for Inactive)
REMARK    1  A    between atoms: C_1  and  O_2
REMARK    2  A    between atoms: O_2  and  C_3
REMARK    3  A    between atoms: C_5  and  C_21
REMARK    4  A    between atoms: C_7  and  C_10
REMARK    5  A    between atoms: C_8  and  O_9
REMARK    6  A    between atoms: C_11  and  C_12
REMARK    7  A    between atoms: C_14  and  O_19
REMARK    8  A    between atoms: C_15  and  O_18
REMARK    9  A    between atoms: O_19  and  C_20
REMARK   10  A    between atoms: C_22  and  C_23
REMARK   11  A    between atoms: C_23  and  O_25
REMARK                            x       y       z     vdW  Elec       q    Type
REMARK                         _______ _______ _______ _____ _____    ______ ____
ROOT
ATOM      3  C   UNL     1     137.621 137.019 135.898  0.00  0.00    +0.000 A 
ATOM      4  C   UNL     1     138.316 137.483 134.776  0.00  0.00    +0.000 A 
ATOM      5  C   UNL     1     139.442 138.311 134.912  0.00  0.00    +0.000 A 
ATOM      6  C   UNL     1     139.894 138.637 136.201  0.00  0.00    +0.000 A 
ATOM      7  C   UNL     1     139.221 138.175 137.344  0.00  0.00    +0.000 A 
ATOM      8  C   UNL     1     138.077 137.377 137.178  0.00  0.00    +0.000 A 
ENDROOT
BRANCH   3   2
ATOM      1  C   UNL     1     135.633 136.366 134.742  0.00  0.00    +0.000 C 
ATOM      2  O   UNL     1     136.514 136.212 135.845  0.00  0.00    +0.000 OA
ENDBRANCH   3   2
BRANCH   8   9
ATOM      9  O   UNL     1     137.375 136.900 138.261  0.00  0.00    +0.000 OA
ATOM     26  H   UNL     1     137.944 136.942 139.047  0.00  0.00    +0.000 HD
ENDBRANCH   8   9
BRANCH   7  10
ATOM     10  C   UNL     1     139.770 138.496 138.672  0.00  0.00    +0.000 C 
ATOM     11  C   UNL     1     141.001 138.130 139.067  0.00  0.00    +0.000 C 
BRANCH  11  12
ATOM     12  C   UNL     1     141.594 138.481 140.374  0.00  0.00    +0.000 A 
ATOM     13  C   UNL     1     142.739 139.285 140.505  0.00  0.00    +0.000 A 
ATOM     14  C   UNL     1     143.294 139.619 141.759  0.00  0.00    +0.000 A 
ATOM     15  C   UNL     1     142.666 139.132 142.906  0.00  0.00    +0.000 A 
ATOM     16  C   UNL     1     141.513 138.347 142.793  0.00  0.00    +0.000 A 
ATOM     17  C   UNL     1     140.976 138.031 141.542  0.00  0.00    +0.000 A 
BRANCH  15  18
ATOM     18  O   UNL     1     143.059 139.328 144.198  0.00  0.00    +0.000 OA
ATOM     27  H   UNL     1     144.011 139.470 144.239  0.00  0.00    +0.000 HD
ENDBRANCH  15  18
BRANCH  14  19
ATOM     19  O   UNL     1     144.411 140.389 141.615  0.00  0.00    +0.000 OA
ATOM     20  C   UNL     1     145.444 140.041 140.714  0.00  0.00    +0.000 C 
ENDBRANCH  14  19
ENDBRANCH  11  12
ENDBRANCH   7  10
BRANCH   5  21
ATOM     21  C   UNL     1     140.201 138.787 133.741  0.00  0.00    +0.000 C 
ATOM     22  C   UNL     1     141.477 138.458 133.480  0.00  0.00    +0.000 C 
BRANCH  22  23
ATOM     23  C   UNL     1     142.137 138.994 132.273  0.00  0.00    +0.000 C 
ATOM     24  O   UNL     1     142.340 138.359 131.252  0.00  0.00    +0.000 OA
BRANCH  23  25
ATOM     25  O   UNL     1     142.490 140.286 132.420  0.00  0.00    +0.000 OA
ATOM     28  H   UNL     1     141.772 140.936 132.320  0.00  0.00    +0.000 HD
ENDBRANCH  23  25
ENDBRANCH  22  23
ENDBRANCH   5  21
TORSDOF 9
ENDMDL
MODEL 3
REMARK VINA RESULT:    -6.887      2.577      8.688
REMARK INTER + INTRA:         -10.587
REMARK INTER:                  -9.891
REMARK INTRA:                  -0.696
REMARK UNBOUND:                -0.681
REMARK  Name = 
REMARK  11 active torsions:
REMARK  status: ('A' for Active; 'I' for Inactive)
REMARK    1  A    between atoms: C_1  and  O_2
REMARK    2  A    between atoms: O_2  and  C_3
REMARK    3  A    between atoms: C_5  and  C_21
REMARK    4  A    between atoms: C_7  and  C_10
REMARK    5  A    between atoms: C_8  and  O_9
REMARK    6  A    between atoms: C_11  and  C_12
REMARK    7  A    between atoms: C_14  and  O_19
REMARK    8  A    between atoms: C_15  and  O_18
REMARK    9  A    between atoms: O_19  and  C_20
REMARK   10  A    between atoms: C_22  and  C_23
REMARK   11  A    between atoms: C_23  and  O_25
REMARK                            x       y       z     vdW  Elec       q    Type
REMARK                         _______ _______ _______ _____ _____    ______ ____
ROOT
ATOM      3  C   UNL     1     137.625 137.004 135.839  0.00  0.00    +0.000 A 
ATOM      4  C   UNL     1     138.347 137.517 134.756  0.00  0.00    +0.000 A 
ATOM      5  C   UNL     1     139.458 138.351 134.956  0.00  0.00    +0.000 A 
ATOM      6  C   UNL     1     139.871 138.630 136.269  0.00  0.00    +0.000 A 
ATOM      7  C   UNL     1     139.172 138.118 137.374  0.00  0.00    +0.000 A 
ATOM      8  C   UNL     1     138.041 137.316 137.145  0.00  0.00    +0.000 A 
ENDROOT
BRANCH   3   2
ATOM      1  C   UNL     1     135.626 136.438 134.655  0.00  0.00    +0.000 C 
ATOM      2  O   UNL     1     136.528 136.188 135.723  0.00  0.00    +0.000 OA
ENDBRANCH   3   2
BRANCH   8   9
ATOM      9  O   UNL     1     137.314 136.790 138.188  0.00  0.00    +0.000 OA
ATOM     26  H   UNL     1     136.944 137.520 138.711  0.00  0.00    +0.000 HD
ENDBRANCH   8   9
BRANCH   7  10
ATOM     10  C   UNL     1     139.679 138.392 138.728  0.00  0.00    +0.000 C 
ATOM     11  C   UNL     1     140.913 138.048 139.135  0.00  0.00    +0.000 C 
BRANCH  11  12
ATOM     12  C   UNL     1     141.464 138.355 140.471  0.00  0.00    +0.000 A 
ATOM     13  C   UNL     1     141.018 137.728 141.646  0.00  0.00    +0.000 A 
ATOM     14  C   UNL     1     141.556 138.025 142.917  0.00  0.00    +0.000 A 
ATOM     15  C   UNL     1     142.576 138.974 142.994  0.00  0.00    +0.000 A 
ATOM     16  C   UNL     1     143.045 139.593 141.829  0.00  0.00    +0.000 A 
ATOM     17  C   UNL     1     142.503 139.281 140.579  0.00  0.00    +0.000 A 
BRANCH  15  18
ATOM     18  O   UNL     1     143.206 139.407 144.124  0.00  0.00    +0.000 OA
ATOM     27  H   UNL     1     143.914 140.020 143.897  0.00  0.00    +0.000 HD
ENDBRANCH  15  18
BRANCH  14  19
ATOM     19  O   UNL     1     140.941 137.299 143.896  0.00  0.00    +0.000 OA
ATOM     20  C   UNL     1     139.954 136.332 143.595  0.00  0.00    +0.000 C 
ENDBRANCH  14  19
ENDBRANCH  11  12
ENDBRANCH   7  10
BRANCH   5  21
ATOM     21  C   UNL     1     140.245 138.878 133.827  0.00  0.00    +0.000 C 
ATOM     22  C   UNL     1     141.474 138.451 133.492  0.00  0.00    +0.000 C 
BRANCH  22  23
ATOM     23  C   UNL     1     142.168 139.054 132.337  0.00  0.00    +0.000 C 
ATOM     24  O   UNL     1     142.576 138.432 131.370  0.00  0.00    +0.000 OA
BRANCH  23  25
ATOM     25  O   UNL     1     142.297 140.388 132.462  0.00  0.00    +0.000 OA
ATOM     28  H   UNL     1     142.451 140.879 131.636  0.00  0.00    +0.000 HD
ENDBRANCH  23  25
ENDBRANCH  22  23
ENDBRANCH   5  21
TORSDOF 9
ENDMDL
MODEL 4
REMARK VINA RESULT:    -6.727      2.814      5.064
REMARK INTER + INTRA:         -10.358
REMARK INTER:                  -9.868
REMARK INTRA:                  -0.490
REMARK UNBOUND:                -0.681
REMARK  Name = 
REMARK  11 active torsions:
REMARK  status: ('A' for Active; 'I' for Inactive)
REMARK    1  A    between atoms: C_1  and  O_2
REMARK    2  A    between atoms: O_2  and  C_3
REMARK    3  A    between atoms: C_5  and  C_21
REMARK    4  A    between atoms: C_7  and  C_10
REMARK    5  A    between atoms: C_8  and  O_9
REMARK    6  A    between atoms: C_11  and  C_12
REMARK    7  A    between atoms: C_14  and  O_19
REMARK    8  A    between atoms: C_15  and  O_18
REMARK    9  A    between atoms: O_19  and  C_20
REMARK   10  A    between atoms: C_22  and  C_23
REMARK   11  A    between atoms: C_23  and  O_25
REMARK                            x       y       z     vdW  Elec       q    Type
REMARK                         _______ _______ _______ _____ _____    ______ ____
ROOT
ATOM      3  C   UNL     1     134.899 135.839 142.730  0.00  0.00    +0.000 A 
ATOM      4  C   UNL     1     135.067 136.425 143.989  0.00  0.00    +0.000 A 
ATOM      5  C   UNL     1     136.276 137.042 144.346  0.00  0.00    +0.000 A 
ATOM      6  C   UNL     1     137.312 137.106 143.399  0.00  0.00    +0.000 A 
ATOM      7  C   UNL     1     137.166 136.537 142.124  0.00  0.00    +0.000 A 
ATOM      8  C   UNL     1     135.957 135.894 141.806  0.00  0.00    +0.000 A 
ENDROOT
BRANCH   3   2
ATOM      1  C   UNL     1     132.694 135.074 143.248  0.00  0.00    +0.000 C 
ATOM      2  O   UNL     1     133.752 135.216 142.311  0.00  0.00    +0.000 OA
ENDBRANCH   3   2
BRANCH   8   9
ATOM      9  O   UNL     1     135.759 135.314 140.575  0.00  0.00    +0.000 OA
ATOM     26  H   UNL     1     136.474 134.679 140.408  0.00  0.00    +0.000 HD
ENDBRANCH   8   9
BRANCH   7  10
ATOM     10  C   UNL     1     138.259 136.683 141.149  0.00  0.00    +0.000 C 
ATOM     11  C   UNL     1     138.118 137.321 139.975  0.00  0.00    +0.000 C 
BRANCH  11  12
ATOM     12  C   UNL     1     139.210 137.524 139.002  0.00  0.00    +0.000 A 
ATOM     13  C   UNL     1     138.984 137.867 137.658  0.00  0.00    +0.000 A 
ATOM     14  C   UNL     1     140.036 138.064 136.737  0.00  0.00    +0.000 A 
ATOM     15  C   UNL     1     141.346 137.919 137.195  0.00  0.00    +0.000 A 
ATOM     16  C   UNL     1     141.587 137.598 138.536  0.00  0.00    +0.000 A 
ATOM     17  C   UNL     1     140.532 137.412 139.433  0.00  0.00    +0.000 A 
BRANCH  15  18
ATOM     18  O   UNL     1     142.488 138.050 136.459  0.00  0.00    +0.000 OA
ATOM     27  H   UNL     1     143.253 138.118 137.041  0.00  0.00    +0.000 HD
ENDBRANCH  15  18
BRANCH  14  19
ATOM     19  O   UNL     1     139.555 138.367 135.496  0.00  0.00    +0.000 OA
ATOM     20  C   UNL     1     138.916 137.396 134.690  0.00  0.00    +0.000 C 
ENDBRANCH  14  19
ENDBRANCH  11  12
ENDBRANCH   7  10
BRANCH   5  21
ATOM     21  C   UNL     1     136.460 137.687 145.659  0.00  0.00    +0.000 C 
ATOM     22  C   UNL     1     135.770 137.366 146.766  0.00  0.00    +0.000 C 
BRANCH  22  23
ATOM     23  C   UNL     1     136.040 138.080 148.028  0.00  0.00    +0.000 C 
ATOM     24  O   UNL     1     135.558 137.787 149.110  0.00  0.00    +0.000 OA
BRANCH  23  25
ATOM     25  O   UNL     1     136.899 139.104 147.859  0.00  0.00    +0.000 OA
ATOM     28  H   UNL     1     137.812 138.858 147.629  0.00  0.00    +0.000 HD
ENDBRANCH  23  25
ENDBRANCH  22  23
ENDBRANCH   5  21
TORSDOF 9
ENDMDL
MODEL 5
REMARK VINA RESULT:    -6.709      1.430      1.720
REMARK INTER + INTRA:         -10.332
REMARK INTER:                  -9.738
REMARK INTRA:                  -0.594
REMARK UNBOUND:                -0.681
REMARK  Name = 
REMARK  11 active torsions:
REMARK  status: ('A' for Active; 'I' for Inactive)
REMARK    1  A    between atoms: C_1  and  O_2
REMARK    2  A    between atoms: O_2  and  C_3
REMARK    3  A    between atoms: C_5  and  C_21
REMARK    4  A    between atoms: C_7  and  C_10
REMARK    5  A    between atoms: C_8  and  O_9
REMARK    6  A    between atoms: C_11  and  C_12
REMARK    7  A    between atoms: C_14  and  O_19
REMARK    8  A    between atoms: C_15  and  O_18
REMARK    9  A    between atoms: O_19  and  C_20
REMARK   10  A    between atoms: C_22  and  C_23
REMARK   11  A    between atoms: C_23  and  O_25
REMARK                            x       y       z     vdW  Elec       q    Type
REMARK                         _______ _______ _______ _____ _____    ______ ____
ROOT
ATOM      3  C   UNL     1     139.647 137.000 143.372  0.00  0.00    +0.000 A 
ATOM      4  C   UNL     1     138.314 136.956 143.794  0.00  0.00    +0.000 A 
ATOM      5  C   UNL     1     137.260 136.952 142.866  0.00  0.00    +0.000 A 
ATOM      6  C   UNL     1     137.562 136.947 141.494  0.00  0.00    +0.000 A 
ATOM      7  C   UNL     1     138.891 136.979 141.044  0.00  0.00    +0.000 A 
ATOM      8  C   UNL     1     139.926 137.018 141.994  0.00  0.00    +0.000 A 
ENDROOT
BRANCH   3   2
ATOM      1  C   UNL     1     140.979 135.843 144.985  0.00  0.00    +0.000 C 
ATOM      2  O   UNL     1     140.728 137.010 144.215  0.00  0.00    +0.000 OA
ENDBRANCH   3   2
BRANCH   8   9
ATOM      9  O   UNL     1     141.246 137.055 141.611  0.00  0.00    +0.000 OA
ATOM     26  H   UNL     1     141.769 136.525 142.235  0.00  0.00    +0.000 HD
ENDBRANCH   8   9
BRANCH   7  10
ATOM     10  C   UNL     1     139.155 136.912 139.597  0.00  0.00    +0.000 C 
ATOM     11  C   UNL     1     139.604 137.957 138.882  0.00  0.00    +0.000 C 
BRANCH  11  12
ATOM     12  C   UNL     1     139.924 137.904 137.441  0.00  0.00    +0.000 A 
ATOM     13  C   UNL     1     138.941 137.822 136.441  0.00  0.00    +0.000 A 
ATOM     14  C   UNL     1     139.257 137.778 135.066  0.00  0.00    +0.000 A 
ATOM     15  C   UNL     1     140.602 137.826 134.699  0.00  0.00    +0.000 A 
ATOM     16  C   UNL     1     141.592 137.929 135.683  0.00  0.00    +0.000 A 
ATOM     17  C   UNL     1     141.258 137.977 137.039  0.00  0.00    +0.000 A 
BRANCH  15  18
ATOM     18  O   UNL     1     141.106 137.777 133.432  0.00  0.00    +0.000 OA
ATOM     27  H   UNL     1     141.376 138.656 133.146  0.00  0.00    +0.000 HD
ENDBRANCH  15  18
BRANCH  14  19
ATOM     19  O   UNL     1     138.130 137.678 134.303  0.00  0.00    +0.000 OA
ATOM     20  C   UNL     1     136.904 137.225 134.843  0.00  0.00    +0.000 C 
ENDBRANCH  14  19
ENDBRANCH  11  12
ENDBRANCH   7  10
BRANCH   5  21
ATOM     21  C   UNL     1     135.851 136.880 143.294  0.00  0.00    +0.000 C 
ATOM     22  C   UNL     1     134.917 136.117 142.702  0.00  0.00    +0.000 C 
BRANCH  22  23
ATOM     23  C   UNL     1     133.534 136.124 143.218  0.00  0.00    +0.000 C 
ATOM     24  O   UNL     1     132.537 136.286 142.534  0.00  0.00    +0.000 OA
BRANCH  23  25
ATOM     25  O   UNL     1     133.488 135.921 144.549  0.00  0.00    +0.000 OA
ATOM     28  H   UNL     1     134.324 136.056 145.028  0.00  0.00    +0.000 HD
ENDBRANCH  23  25
ENDBRANCH  22  23
ENDBRANCH   5  21
TORSDOF 9
ENDMDL
MODEL 6
REMARK VINA RESULT:    -6.702      1.835      8.366
REMARK INTER + INTRA:         -10.322
REMARK INTER:                  -9.667
REMARK INTRA:                  -0.655
REMARK UNBOUND:                -0.681
REMARK  Name = 
REMARK  11 active torsions:
REMARK  status: ('A' for Active; 'I' for Inactive)
REMARK    1  A    between atoms: C_1  and  O_2
REMARK    2  A    between atoms: O_2  and  C_3
REMARK    3  A    between atoms: C_5  and  C_21
REMARK    4  A    between atoms: C_7  and  C_10
REMARK    5  A    between atoms: C_8  and  O_9
REMARK    6  A    between atoms: C_11  and  C_12
REMARK    7  A    between atoms: C_14  and  O_19
REMARK    8  A    between atoms: C_15  and  O_18
REMARK    9  A    between atoms: O_19  and  C_20
REMARK   10  A    between atoms: C_22  and  C_23
REMARK   11  A    between atoms: C_23  and  O_25
REMARK                            x       y       z     vdW  Elec       q    Type
REMARK                         _______ _______ _______ _____ _____    ______ ____
ROOT
ATOM      3  C   UNL     1     141.995 138.571 140.441  0.00  0.00    +0.000 A 
ATOM      4  C   UNL     1     141.903 138.464 139.049  0.00  0.00    +0.000 A 
ATOM      5  C   UNL     1     140.692 138.125 138.427  0.00  0.00    +0.000 A 
ATOM      6  C   UNL     1     139.549 137.936 139.222  0.00  0.00    +0.000 A 
ATOM      7  C   UNL     1     139.611 138.049 140.620  0.00  0.00    +0.000 A 
ATOM      8  C   UNL     1     140.845 138.354 141.219  0.00  0.00    +0.000 A 
ENDROOT
BRANCH   3   2
ATOM      1  C   UNL     1     143.584 140.243 141.071  0.00  0.00    +0.000 C 
ATOM      2  O   UNL     1     143.142 138.894 141.120  0.00  0.00    +0.000 OA
ENDBRANCH   3   2
BRANCH   8   9
ATOM      9  O   UNL     1     140.966 138.473 142.584  0.00  0.00    +0.000 OA
ATOM     26  H   UNL     1     141.517 137.745 142.915  0.00  0.00    +0.000 HD
ENDBRANCH   8   9
BRANCH   7  10
ATOM     10  C   UNL     1     138.373 137.900 141.403  0.00  0.00    +0.000 C 
ATOM     11  C   UNL     1     137.908 136.712 141.826  0.00  0.00    +0.000 C 
BRANCH  11  12
ATOM     12  C   UNL     1     136.697 136.539 142.654  0.00  0.00    +0.000 A 
ATOM     13  C   UNL     1     136.554 137.108 143.930  0.00  0.00    +0.000 A 
ATOM     14  C   UNL     1     135.390 136.941 144.711  0.00  0.00    +0.000 A 
ATOM     15  C   UNL     1     134.344 136.186 144.178  0.00  0.00    +0.000 A 
ATOM     16  C   UNL     1     134.464 135.631 142.898  0.00  0.00    +0.000 A 
ATOM     17  C   UNL     1     135.623 135.812 142.139  0.00  0.00    +0.000 A 
BRANCH  15  18
ATOM     18  O   UNL     1     133.154 135.898 144.781  0.00  0.00    +0.000 OA
ATOM     27  H   UNL     1     132.865 136.642 145.320  0.00  0.00    +0.000 HD
ENDBRANCH  15  18
BRANCH  14  19
ATOM     19  O   UNL     1     135.508 137.572 145.915  0.00  0.00    +0.000 OA
ATOM     20  C   UNL     1     135.693 136.850 147.117  0.00  0.00    +0.000 C 
ENDBRANCH  14  19
ENDBRANCH  11  12
ENDBRANCH   7  10
BRANCH   5  21
ATOM     21  C   UNL     1     140.572 138.034 136.961  0.00  0.00    +0.000 C 
ATOM     22  C   UNL     1     141.582 137.712 136.135  0.00  0.00    +0.000 C 
BRANCH  22  23
ATOM     23  C   UNL     1     141.344 137.650 134.680  0.00  0.00    +0.000 C 
ATOM     24  O   UNL     1     141.772 138.457 133.871  0.00  0.00    +0.000 OA
BRANCH  23  25
ATOM     25  O   UNL     1     140.597 136.585 134.332  0.00  0.00    +0.000 OA
ATOM     28  H   UNL     1     140.692 136.283 133.411  0.00  0.00    +0.000 HD
ENDBRANCH  23  25
ENDBRANCH  22  23
ENDBRANCH   5  21
TORSDOF 9
ENDMDL
MODEL 7
REMARK VINA RESULT:    -6.697     19.996     23.729
REMARK INTER + INTRA:         -10.315
REMARK INTER:                  -9.603
REMARK INTRA:                  -0.712
REMARK UNBOUND:                -0.681
REMARK  Name = 
REMARK  11 active torsions:
REMARK  status: ('A' for Active; 'I' for Inactive)
REMARK    1  A    between atoms: C_1  and  O_2
REMARK    2  A    between atoms: O_2  and  C_3
REMARK    3  A    between atoms: C_5  and  C_21
REMARK    4  A    between atoms: C_7  and  C_10
REMARK    5  A    between atoms: C_8  and  O_9
REMARK    6  A    between atoms: C_11  and  C_12
REMARK    7  A    between atoms: C_14  and  O_19
REMARK    8  A    between atoms: C_15  and  O_18
REMARK    9  A    between atoms: O_19  and  C_20
REMARK   10  A    between atoms: C_22  and  C_23
REMARK   11  A    between atoms: C_23  and  O_25
REMARK                            x       y       z     vdW  Elec       q    Type
REMARK                         _______ _______ _______ _____ _____    ______ ____
ROOT
ATOM      3  C   UNL     1     120.330 141.071 124.712  0.00  0.00    +0.000 A 
ATOM      4  C   UNL     1     120.870 141.572 125.901  0.00  0.00    +0.000 A 
ATOM      5  C   UNL     1     122.204 142.007 125.964  0.00  0.00    +0.000 A 
ATOM      6  C   UNL     1     122.985 141.975 124.797  0.00  0.00    +0.000 A 
ATOM      7  C   UNL     1     122.463 141.488 123.588  0.00  0.00    +0.000 A 
ATOM      8  C   UNL     1     121.137 141.026 123.561  0.00  0.00    +0.000 A 
ENDROOT
BRANCH   3   2
ATOM      1  C   UNL     1     117.992 141.574 124.708  0.00  0.00    +0.000 C 
ATOM      2  O   UNL     1     119.040 140.625 124.573  0.00  0.00    +0.000 OA
ENDBRANCH   3   2
BRANCH   8   9
ATOM      9  O   UNL     1     120.574 140.534 122.407  0.00  0.00    +0.000 OA
ATOM     26  H   UNL     1     119.794 141.068 122.185  0.00  0.00    +0.000 HD
ENDBRANCH   8   9
BRANCH   7  10
ATOM     10  C   UNL     1     123.304 141.531 122.381  0.00  0.00    +0.000 C 
ATOM     11  C   UNL     1     124.392 140.760 122.213  0.00  0.00    +0.000 C 
BRANCH  11  12
ATOM     12  C   UNL     1     125.224 140.748 120.992  0.00  0.00    +0.000 A 
ATOM     13  C   UNL     1     125.336 141.852 120.131  0.00  0.00    +0.000 A 
ATOM     14  C   UNL     1     126.138 141.832 118.970  0.00  0.00    +0.000 A 
ATOM     15  C   UNL     1     126.849 140.666 118.682  0.00  0.00    +0.000 A 
ATOM     16  C   UNL     1     126.764 139.565 119.542  0.00  0.00    +0.000 A 
ATOM     17  C   UNL     1     125.968 139.607 120.690  0.00  0.00    +0.000 A 
BRANCH  15  18
ATOM     18  O   UNL     1     127.658 140.447 117.605  0.00  0.00    +0.000 OA
ATOM     27  H   UNL     1     127.652 141.213 117.022  0.00  0.00    +0.000 HD
ENDBRANCH  15  18
BRANCH  14  19
ATOM     19  O   UNL     1     126.061 143.016 118.294  0.00  0.00    +0.000 OA
ATOM     20  C   UNL     1     125.298 143.148 117.111  0.00  0.00    +0.000 C 
ENDBRANCH  14  19
ENDBRANCH  11  12
ENDBRANCH   7  10
BRANCH   5  21
ATOM     21  C   UNL     1     122.780 142.561 127.201  0.00  0.00    +0.000 C 
ATOM     22  C   UNL     1     123.948 143.223 127.264  0.00  0.00    +0.000 C 
BRANCH  22  23
ATOM     23  C   UNL     1     124.427 143.736 128.563  0.00  0.00    +0.000 C 
ATOM     24  O   UNL     1     123.792 144.478 129.294  0.00  0.00    +0.000 OA
BRANCH  23  25
ATOM     25  O   UNL     1     125.660 143.285 128.864  0.00  0.00    +0.000 OA
ATOM     28  H   UNL     1     126.271 143.942 129.242  0.00  0.00    +0.000 HD
ENDBRANCH  23  25
ENDBRANCH  22  23
ENDBRANCH   5  21
TORSDOF 9
ENDMDL
MODEL 8
REMARK VINA RESULT:    -6.695      2.780      8.148
REMARK INTER + INTRA:         -10.312
REMARK INTER:                  -9.640
REMARK INTRA:                  -0.672
REMARK UNBOUND:                -0.681
REMARK  Name = 
REMARK  11 active torsions:
REMARK  status: ('A' for Active; 'I' for Inactive)
REMARK    1  A    between atoms: C_1  and  O_2
REMARK    2  A    between atoms: O_2  and  C_3
REMARK    3  A    between atoms: C_5  and  C_21
REMARK    4  A    between atoms: C_7  and  C_10
REMARK    5  A    between atoms: C_8  and  O_9
REMARK    6  A    between atoms: C_11  and  C_12
REMARK    7  A    between atoms: C_14  and  O_19
REMARK    8  A    between atoms: C_15  and  O_18
REMARK    9  A    between atoms: O_19  and  C_20
REMARK   10  A    between atoms: C_22  and  C_23
REMARK   11  A    between atoms: C_23  and  O_25
REMARK                            x       y       z     vdW  Elec       q    Type
REMARK                         _______ _______ _______ _____ _____    ______ ____
ROOT
ATOM      3  C   UNL     1     139.165 138.153 135.041  0.00  0.00    +0.000 A 
ATOM      4  C   UNL     1     137.972 137.807 134.398  0.00  0.00    +0.000 A 
ATOM      5  C   UNL     1     136.857 137.366 135.127  0.00  0.00    +0.000 A 
ATOM      6  C   UNL     1     136.937 137.318 136.529  0.00  0.00    +0.000 A 
ATOM      7  C   UNL     1     138.118 137.673 137.201  0.00  0.00    +0.000 A 
ATOM      8  C   UNL     1     139.231 138.076 136.443  0.00  0.00    +0.000 A 
ENDROOT
BRANCH   3   2
ATOM      1  C   UNL     1     140.781 137.811 133.313  0.00  0.00    +0.000 C 
ATOM      2  O   UNL     1     140.295 138.588 134.398  0.00  0.00    +0.000 OA
ENDBRANCH   3   2
BRANCH   8   9
ATOM      9  O   UNL     1     140.415 138.430 137.046  0.00  0.00    +0.000 OA
ATOM     26  H   UNL     1     140.788 137.650 137.488  0.00  0.00    +0.000 HD
ENDBRANCH   8   9
BRANCH   7  10
ATOM     10  C   UNL     1     138.131 137.663 138.672  0.00  0.00    +0.000 C 
ATOM     11  C   UNL     1     137.920 136.556 139.403  0.00  0.00    +0.000 C 
BRANCH  11  12
ATOM     12  C   UNL     1     137.976 136.508 140.879  0.00  0.00    +0.000 A 
ATOM     13  C   UNL     1     136.836 136.351 141.684  0.00  0.00    +0.000 A 
ATOM     14  C   UNL     1     136.902 136.301 143.093  0.00  0.00    +0.000 A 
ATOM     15  C   UNL     1     138.156 136.405 143.697  0.00  0.00    +0.000 A 
ATOM     16  C   UNL     1     139.303 136.542 142.906  0.00  0.00    +0.000 A 
ATOM     17  C   UNL     1     139.217 136.583 141.512  0.00  0.00    +0.000 A 
BRANCH  15  18
ATOM     18  O   UNL     1     138.422 136.398 145.035  0.00  0.00    +0.000 OA
ATOM     27  H   UNL     1     137.850 137.024 145.492  0.00  0.00    +0.000 HD
ENDBRANCH  15  18
BRANCH  14  19
ATOM     19  O   UNL     1     135.659 136.165 143.642  0.00  0.00    +0.000 OA
ATOM     20  C   UNL     1     134.506 136.678 143.005  0.00  0.00    +0.000 C 
ENDBRANCH  14  19
ENDBRANCH  11  12
ENDBRANCH   7  10
BRANCH   5  21
ATOM     21  C   UNL     1     135.585 137.021 134.467  0.00  0.00    +0.000 C 
ATOM     22  C   UNL     1     134.942 135.851 134.621  0.00  0.00    +0.000 C 
BRANCH  22  23
ATOM     23  C   UNL     1     133.671 135.618 133.908  0.00  0.00    +0.000 C 
ATOM     24  O   UNL     1     133.581 135.166 132.778  0.00  0.00    +0.000 OA
BRANCH  23  25
ATOM     25  O   UNL     1     132.601 135.953 134.654  0.00  0.00    +0.000 OA
ATOM     28  H   UNL     1     131.795 135.431 134.498  0.00  0.00    +0.000 HD
ENDBRANCH  23  25
ENDBRANCH  22  23
ENDBRANCH   5  21
TORSDOF 9
ENDMDL
MODEL 9
REMARK VINA RESULT:    -6.544      1.543      2.433
REMARK INTER + INTRA:         -10.094
REMARK INTER:                  -9.413
REMARK INTRA:                  -0.681
REMARK UNBOUND:                -0.681
REMARK  Name = 
REMARK  11 active torsions:
REMARK  status: ('A' for Active; 'I' for Inactive)
REMARK    1  A    between atoms: C_1  and  O_2
REMARK    2  A    between atoms: O_2  and  C_3
REMARK    3  A    between atoms: C_5  and  C_21
REMARK    4  A    between atoms: C_7  and  C_10
REMARK    5  A    between atoms: C_8  and  O_9
REMARK    6  A    between atoms: C_11  and  C_12
REMARK    7  A    between atoms: C_14  and  O_19
REMARK    8  A    between atoms: C_15  and  O_18
REMARK    9  A    between atoms: O_19  and  C_20
REMARK   10  A    between atoms: C_22  and  C_23
REMARK   11  A    between atoms: C_23  and  O_25
REMARK                            x       y       z     vdW  Elec       q    Type
REMARK                         _______ _______ _______ _____ _____    ______ ____
ROOT
ATOM      3  C   UNL     1     139.666 137.022 143.351  0.00  0.00    +0.000 A 
ATOM      4  C   UNL     1     138.327 136.880 143.733  0.00  0.00    +0.000 A 
ATOM      5  C   UNL     1     137.291 136.972 142.791  0.00  0.00    +0.000 A 
ATOM      6  C   UNL     1     137.617 137.166 141.438  0.00  0.00    +0.000 A 
ATOM      7  C   UNL     1     138.953 137.300 141.026  0.00  0.00    +0.000 A 
ATOM      8  C   UNL     1     139.968 137.239 141.996  0.00  0.00    +0.000 A 
ENDROOT
BRANCH   3   2
ATOM      1  C   UNL     1     140.843 135.792 145.030  0.00  0.00    +0.000 C 
ATOM      2  O   UNL     1     140.730 136.948 144.213  0.00  0.00    +0.000 OA
ENDBRANCH   3   2
BRANCH   8   9
ATOM      9  O   UNL     1     141.294 137.368 141.652  0.00  0.00    +0.000 OA
ATOM     26  H   UNL     1     141.673 138.117 142.139  0.00  0.00    +0.000 HD
ENDBRANCH   8   9
BRANCH   7  10
ATOM     10  C   UNL     1     139.245 137.442 139.591  0.00  0.00    +0.000 C 
ATOM     11  C   UNL     1     138.667 138.370 138.810  0.00  0.00    +0.000 C 
BRANCH  11  12
ATOM     12  C   UNL     1     138.978 138.566 137.380  0.00  0.00    +0.000 A 
ATOM     13  C   UNL     1     140.067 137.949 136.741  0.00  0.00    +0.000 A 
ATOM     14  C   UNL     1     140.352 138.139 135.372  0.00  0.00    +0.000 A 
ATOM     15  C   UNL     1     139.507 138.968 134.633  0.00  0.00    +0.000 A 
ATOM     16  C   UNL     1     138.406 139.574 135.251  0.00  0.00    +0.000 A 
ATOM     17  C   UNL     1     138.138 139.369 136.607  0.00  0.00    +0.000 A 
BRANCH  15  18
ATOM     18  O   UNL     1     139.626 139.288 133.312  0.00  0.00    +0.000 OA
ATOM     27  H   UNL     1     139.089 140.062 133.107  0.00  0.00    +0.000 HD
ENDBRANCH  15  18
BRANCH  14  19
ATOM     19  O   UNL     1     141.470 137.450 135.000  0.00  0.00    +0.000 OA
ATOM     20  C   UNL     1     142.611 137.379 135.832  0.00  0.00    +0.000 C 
ENDBRANCH  14  19
ENDBRANCH  11  12
ENDBRANCH   7  10
BRANCH   5  21
ATOM     21  C   UNL     1     135.878 136.799 143.173  0.00  0.00    +0.000 C 
ATOM     22  C   UNL     1     135.051 135.888 142.631  0.00  0.00    +0.000 C 
BRANCH  22  23
ATOM     23  C   UNL     1     133.652 135.805 143.094  0.00  0.00    +0.000 C 
ATOM     24  O   UNL     1     132.715 136.396 142.583  0.00  0.00    +0.000 OA
BRANCH  23  25
ATOM     25  O   UNL     1     133.516 134.988 144.156  0.00  0.00    +0.000 OA
ATOM     28  H   UNL     1     132.925 134.225 144.030  0.00  0.00    +0.000 HD
ENDBRANCH  23  25
ENDBRANCH  22  23
ENDBRANCH   5  21
TORSDOF 9
ENDMDL
