MODEL 1
REMARK VINA RESULT:    -6.946      0.000      0.000
REMARK INTER + INTRA:         -10.692
REMARK INTER:                  -9.992
REMARK INTRA:                  -0.700
REMARK UNBOUND:                -0.700
REMARK  Name = 
REMARK  11 active torsions:
REMARK  status: ('A' for Active; 'I' for Inactive)
REMARK    1  A    between atoms: C_1  and  O_2
REMARK    2  A    between atoms: O_2  and  C_3
REMARK    3  A    between atoms: C_5  and  C_21
REMARK    4  A    between atoms: C_7  and  C_10
REMARK    5  A    between atoms: C_8  and  O_9
REMARK    6  A    between atoms: C_11  and  C_12
REMARK    7  A    between atoms: C_14  and  O_19
REMARK    8  A    between atoms: C_15  and  O_18
REMARK    9  A    between atoms: O_19  and  C_20
REMARK   10  A    between atoms: C_22  and  C_23
REMARK   11  A    between atoms: C_23  and  O_25
REMARK                            x       y       z     vdW  Elec       q    Type
REMARK                         _______ _______ _______ _____ _____    ______ ____
ROOT
ATOM      1  C   UNL     1     141.491 138.167 142.776  0.00  0.00    +0.162 A 
ATOM      2  C   UNL     1     140.268 137.669 143.234  0.00  0.00    +0.057 A 
ATOM      3  C   UNL     1     139.176 137.520 142.366  0.00  0.00    -0.021 A 
ATOM      4  C   UNL     1     139.338 137.834 141.007  0.00  0.00    +0.019 A 
ATOM      5  C   UNL     1     140.561 138.321 140.520  0.00  0.00    +0.021 A 
ATOM      6  C   UNL     1     141.628 138.497 141.418  0.00  0.00    +0.166 A 
ENDROOT
BRANCH   1   8
ATOM      7  C   UNL     1     142.572 137.812 144.879  0.00  0.00    +0.277 C 
ATOM      8  O   UNL     1     142.599 138.350 143.564  0.00  0.00    -0.491 OA
ENDBRANCH   1   8
BRANCH   6   9
ATOM      9  O   UNL     1     142.843 138.981 140.996  0.00  0.00    -0.503 OA
ATOM     10  H   UNL     1     142.716 139.861 140.611  0.00  0.00    +0.292 HD
ENDBRANCH   6   9
BRANCH   5  11
ATOM     11  C   UNL     1     140.697 138.581 139.078  0.00  0.00    +0.012 C 
ATOM     12  C   UNL     1     141.069 137.636 138.198  0.00  0.00    +0.009 C 
BRANCH  12  13
ATOM     13  C   UNL     1     141.167 137.845 136.741  0.00  0.00    -0.021 A 
ATOM     14  C   UNL     1     140.048 138.044 135.917  0.00  0.00    +0.057 A 
ATOM     15  C   UNL     1     140.154 138.250 134.525  0.00  0.00    +0.162 A 
ATOM     16  C   UNL     1     141.431 138.260 133.959  0.00  0.00    +0.158 A 
ATOM     17  C   UNL     1     142.557 138.082 134.770  0.00  0.00    +0.050 A 
ATOM     18  C   UNL     1     142.429 137.885 136.148  0.00  0.00    +0.012 A 
BRANCH  16  19
ATOM     19  O   UNL     1     141.740 138.426 132.640  0.00  0.00    -0.503 OA
ATOM     20  H   UNL     1     141.242 139.161 132.269  0.00  0.00    +0.292 HD
ENDBRANCH  16  19
BRANCH  15  21
ATOM     21  O   UNL     1     138.925 138.400 133.952  0.00  0.00    -0.491 OA
ATOM     22  C   UNL     1     137.751 137.914 134.571  0.00  0.00    +0.277 C 
ENDBRANCH  15  21
ENDBRANCH  12  13
ENDBRANCH   5  11
BRANCH   3  23
ATOM     23  C   UNL     1     137.888 136.974 142.828  0.00  0.00    +0.015 C 
ATOM     24  C   UNL     1     136.987 136.379 142.026  0.00  0.00    +0.092 C 
BRANCH  24  25
ATOM     25  C   UNL     1     135.724 135.875 142.595  0.00  0.00    +0.330 C 
ATOM     26  O   UNL     1     134.615 136.189 142.204  0.00  0.00    -0.246 OA
BRANCH  25  27
ATOM     27  O   UNL     1     135.930 135.010 143.608  0.00  0.00    -0.478 OA
ATOM     28  H   UNL     1     136.283 134.138 143.357  0.00  0.00    +0.295 HD
ENDBRANCH  25  27
ENDBRANCH  24  25
ENDBRANCH   3  23
TORSDOF 9
ENDMDL
MODEL 2
REMARK VINA RESULT:    -6.678      2.659      8.847
REMARK INTER + INTRA:         -10.307
REMARK INTER:                  -9.617
REMARK INTRA:                  -0.689
REMARK UNBOUND:                -0.700
REMARK  Name = 
REMARK  11 active torsions:
REMARK  status: ('A' for Active; 'I' for Inactive)
REMARK    1  A    between atoms: C_1  and  O_2
REMARK    2  A    between atoms: O_2  and  C_3
REMARK    3  A    between atoms: C_5  and  C_21
REMARK    4  A    between atoms: C_7  and  C_10
REMARK    5  A    between atoms: C_8  and  O_9
REMARK    6  A    between atoms: C_11  and  C_12
REMARK    7  A    between atoms: C_14  and  O_19
REMARK    8  A    between atoms: C_15  and  O_18
REMARK    9  A    between atoms: O_19  and  C_20
REMARK   10  A    between atoms: C_22  and  C_23
REMARK   11  A    between atoms: C_23  and  O_25
REMARK                            x       y       z     vdW  Elec       q    Type
REMARK                         _______ _______ _______ _____ _____    ______ ____
ROOT
ATOM      1  C   UNL     1     138.074 137.290 136.371  0.00  0.00    +0.162 A 
ATOM      2  C   UNL     1     138.944 137.612 135.327  0.00  0.00    +0.057 A 
ATOM      3  C   UNL     1     140.247 138.067 135.583  0.00  0.00    -0.021 A 
ATOM      4  C   UNL     1     140.690 138.150 136.913  0.00  0.00    +0.019 A 
ATOM      5  C   UNL     1     139.840 137.817 137.979  0.00  0.00    +0.021 A 
ATOM      6  C   UNL     1     138.528 137.400 137.696  0.00  0.00    +0.166 A 
ENDROOT
BRANCH   1   8
ATOM      7  C   UNL     1     136.227 136.928 134.897  0.00  0.00    +0.277 C 
ATOM      8  O   UNL     1     136.785 136.849 136.201  0.00  0.00    -0.491 OA
ENDBRANCH   1   8
BRANCH   6   9
ATOM      9  O   UNL     1     137.651 137.073 138.702  0.00  0.00    -0.503 OA
ATOM     10  H   UNL     1     137.753 136.133 138.918  0.00  0.00    +0.292 HD
ENDBRANCH   6   9
BRANCH   5  11
ATOM     11  C   UNL     1     140.369 137.866 139.351  0.00  0.00    +0.012 C 
ATOM     12  C   UNL     1     141.329 138.726 139.732  0.00  0.00    +0.009 C 
BRANCH  12  13
ATOM     13  C   UNL     1     141.848 138.840 141.109  0.00  0.00    -0.021 A 
ATOM     14  C   UNL     1     142.802 139.794 141.493  0.00  0.00    +0.057 A 
ATOM     15  C   UNL     1     143.286 139.898 142.814  0.00  0.00    +0.162 A 
ATOM     16  C   UNL     1     142.781 139.014 143.770  0.00  0.00    +0.158 A 
ATOM     17  C   UNL     1     141.815 138.070 143.406  0.00  0.00    +0.050 A 
ATOM     18  C   UNL     1     141.345 137.987 142.093  0.00  0.00    +0.012 A 
BRANCH  16  19
ATOM     19  O   UNL     1     143.132 138.944 145.087  0.00  0.00    -0.503 OA
ATOM     20  H   UNL     1     143.341 139.820 145.425  0.00  0.00    +0.292 HD
ENDBRANCH  16  19
BRANCH  15  21
ATOM     21  O   UNL     1     144.218 140.890 142.923  0.00  0.00    -0.491 OA
ATOM     22  C   UNL     1     145.604 140.617 142.877  0.00  0.00    +0.277 C 
ENDBRANCH  15  21
ENDBRANCH  12  13
ENDBRANCH   5  11
BRANCH   3  23
ATOM     23  C   UNL     1     141.184 138.388 134.493  0.00  0.00    +0.015 C 
ATOM     24  C   UNL     1     140.812 138.632 133.224  0.00  0.00    +0.092 C 
BRANCH  24  25
ATOM     25  C   UNL     1     141.837 138.936 132.208  0.00  0.00    +0.330 C 
ATOM     26  O   UNL     1     142.007 138.298 131.186  0.00  0.00    -0.246 OA
BRANCH  25  27
ATOM     27  O   UNL     1     142.574 140.016 132.534  0.00  0.00    -0.478 OA
ATOM     28  H   UNL     1     143.490 140.021 132.203  0.00  0.00    +0.295 HD
ENDBRANCH  25  27
ENDBRANCH  24  25
ENDBRANCH   3  23
TORSDOF 9
ENDMDL
MODEL 3
REMARK VINA RESULT:    -6.676      1.878      8.372
REMARK INTER + INTRA:         -10.303
REMARK INTER:                  -9.681
REMARK INTRA:                  -0.622
REMARK UNBOUND:                -0.700
REMARK  Name = 
REMARK  11 active torsions:
REMARK  status: ('A' for Active; 'I' for Inactive)
REMARK    1  A    between atoms: C_1  and  O_2
REMARK    2  A    between atoms: O_2  and  C_3
REMARK    3  A    between atoms: C_5  and  C_21
REMARK    4  A    between atoms: C_7  and  C_10
REMARK    5  A    between atoms: C_8  and  O_9
REMARK    6  A    between atoms: C_11  and  C_12
REMARK    7  A    between atoms: C_14  and  O_19
REMARK    8  A    between atoms: C_15  and  O_18
REMARK    9  A    between atoms: O_19  and  C_20
REMARK   10  A    between atoms: C_22  and  C_23
REMARK   11  A    between atoms: C_23  and  O_25
REMARK                            x       y       z     vdW  Elec       q    Type
REMARK                         _______ _______ _______ _____ _____    ______ ____
ROOT
ATOM      1  C   UNL     1     141.935 138.586 140.481  0.00  0.00    +0.162 A 
ATOM      2  C   UNL     1     141.874 138.475 139.090  0.00  0.00    +0.057 A 
ATOM      3  C   UNL     1     140.677 138.133 138.442  0.00  0.00    -0.021 A 
ATOM      4  C   UNL     1     139.516 137.948 139.209  0.00  0.00    +0.019 A 
ATOM      5  C   UNL     1     139.548 138.069 140.607  0.00  0.00    +0.021 A 
ATOM      6  C   UNL     1     140.768 138.375 141.234  0.00  0.00    +0.166 A 
ENDROOT
BRANCH   1   8
ATOM      7  C   UNL     1     143.848 140.000 140.723  0.00  0.00    +0.277 C 
ATOM      8  O   UNL     1     143.068 138.906 141.187  0.00  0.00    -0.491 OA
ENDBRANCH   1   8
BRANCH   6   9
ATOM      9  O   UNL     1     140.857 138.495 142.600  0.00  0.00    -0.503 OA
ATOM     10  H   UNL     1     140.294 139.228 142.891  0.00  0.00    +0.292 HD
ENDBRANCH   6   9
BRANCH   5  11
ATOM     11  C   UNL     1     138.293 137.922 141.361  0.00  0.00    +0.012 C 
ATOM     12  C   UNL     1     137.926 136.771 141.948  0.00  0.00    +0.009 C 
BRANCH  12  13
ATOM     13  C   UNL     1     136.702 136.599 142.754  0.00  0.00    -0.021 A 
ATOM     14  C   UNL     1     136.532 137.174 144.023  0.00  0.00    +0.057 A 
ATOM     15  C   UNL     1     135.354 137.008 144.783  0.00  0.00    +0.162 A 
ATOM     16  C   UNL     1     134.322 136.245 144.234  0.00  0.00    +0.158 A 
ATOM     17  C   UNL     1     134.469 135.682 142.962  0.00  0.00    +0.050 A 
ATOM     18  C   UNL     1     135.642 135.862 142.225  0.00  0.00    +0.012 A 
BRANCH  16  19
ATOM     19  O   UNL     1     133.120 135.956 144.814  0.00  0.00    -0.503 OA
ATOM     20  H   UNL     1     133.044 135.010 144.973  0.00  0.00    +0.292 HD
ENDBRANCH  16  19
BRANCH  15  21
ATOM     21  O   UNL     1     135.446 137.650 145.984  0.00  0.00    -0.491 OA
ATOM     22  C   UNL     1     136.311 137.195 147.006  0.00  0.00    +0.277 C 
ENDBRANCH  15  21
ENDBRANCH  12  13
ENDBRANCH   5  11
BRANCH   3  23
ATOM     23  C   UNL     1     140.592 138.036 136.974  0.00  0.00    +0.015 C 
ATOM     24  C   UNL     1     141.623 137.707 136.177  0.00  0.00    +0.092 C 
BRANCH  24  25
ATOM     25  C   UNL     1     141.427 137.647 134.717  0.00  0.00    +0.330 C 
ATOM     26  O   UNL     1     141.888 138.448 133.924  0.00  0.00    -0.246 OA
BRANCH  25  27
ATOM     27  O   UNL     1     140.677 136.592 134.345  0.00  0.00    -0.478 OA
ATOM     28  H   UNL     1     140.087 136.227 135.030  0.00  0.00    +0.295 HD
ENDBRANCH  25  27
ENDBRANCH  24  25
ENDBRANCH   3  23
TORSDOF 9
ENDMDL
MODEL 4
REMARK VINA RESULT:    -6.665      1.738      2.773
REMARK INTER + INTRA:         -10.287
REMARK INTER:                  -9.592
REMARK INTRA:                  -0.696
REMARK UNBOUND:                -0.700
REMARK  Name = 
REMARK  11 active torsions:
REMARK  status: ('A' for Active; 'I' for Inactive)
REMARK    1  A    between atoms: C_1  and  O_2
REMARK    2  A    between atoms: O_2  and  C_3
REMARK    3  A    between atoms: C_5  and  C_21
REMARK    4  A    between atoms: C_7  and  C_10
REMARK    5  A    between atoms: C_8  and  O_9
REMARK    6  A    between atoms: C_11  and  C_12
REMARK    7  A    between atoms: C_14  and  O_19
REMARK    8  A    between atoms: C_15  and  O_18
REMARK    9  A    between atoms: O_19  and  C_20
REMARK   10  A    between atoms: C_22  and  C_23
REMARK   11  A    between atoms: C_23  and  O_25
REMARK                            x       y       z     vdW  Elec       q    Type
REMARK                         _______ _______ _______ _____ _____    ______ ____
ROOT
ATOM      1  C   UNL     1     139.683 136.980 143.483  0.00  0.00    +0.162 A 
ATOM      2  C   UNL     1     138.391 136.794 143.978  0.00  0.00    +0.057 A 
ATOM      3  C   UNL     1     137.276 136.826 143.126  0.00  0.00    -0.021 A 
ATOM      4  C   UNL     1     137.478 137.002 141.748  0.00  0.00    +0.019 A 
ATOM      5  C   UNL     1     138.768 137.176 141.224  0.00  0.00    +0.021 A 
ATOM      6  C   UNL     1     139.863 137.177 142.104  0.00  0.00    +0.166 A 
ENDROOT
BRANCH   1   8
ATOM      7  C   UNL     1     141.213 135.737 144.836  0.00  0.00    +0.277 C 
ATOM      8  O   UNL     1     140.820 136.972 144.253  0.00  0.00    -0.491 OA
ENDBRANCH   1   8
BRANCH   6   9
ATOM      9  O   UNL     1     141.147 137.355 141.645  0.00  0.00    -0.503 OA
ATOM     10  H   UNL     1     141.205 137.029 140.734  0.00  0.00    +0.292 HD
ENDBRANCH   6   9
BRANCH   5  11
ATOM     11  C   UNL     1     138.931 137.300 139.767  0.00  0.00    +0.012 C 
ATOM     12  C   UNL     1     138.847 138.474 139.121  0.00  0.00    +0.009 C 
BRANCH  12  13
ATOM     13  C   UNL     1     139.056 138.645 137.670  0.00  0.00    -0.021 A 
ATOM     14  C   UNL     1     140.083 138.003 136.962  0.00  0.00    +0.057 A 
ATOM     15  C   UNL     1     140.269 138.169 135.573  0.00  0.00    +0.162 A 
ATOM     16  C   UNL     1     139.384 139.002 134.887  0.00  0.00    +0.158 A 
ATOM     17  C   UNL     1     138.342 139.633 135.576  0.00  0.00    +0.050 A 
ATOM     18  C   UNL     1     138.173 139.451 136.951  0.00  0.00    +0.012 A 
BRANCH  16  19
ATOM     19  O   UNL     1     139.406 139.302 133.555  0.00  0.00    -0.503 OA
ATOM     20  H   UNL     1     139.934 138.656 133.075  0.00  0.00    +0.292 HD
ENDBRANCH  16  19
BRANCH  15  21
ATOM     21  O   UNL     1     141.345 137.455 135.129  0.00  0.00    -0.491 OA
ATOM     22  C   UNL     1     142.542 137.372 135.876  0.00  0.00    +0.277 C 
ENDBRANCH  15  21
ENDBRANCH  12  13
ENDBRANCH   5  11
BRANCH   3  23
ATOM     23  C   UNL     1     135.909 136.607 143.630  0.00  0.00    +0.015 C 
ATOM     24  C   UNL     1     134.863 136.266 142.857  0.00  0.00    +0.092 C 
BRANCH  24  25
ATOM     25  C   UNL     1     133.534 136.079 143.467  0.00  0.00    +0.330 C 
ATOM     26  O   UNL     1     133.342 135.833 144.643  0.00  0.00    -0.246 OA
BRANCH  25  27
ATOM     27  O   UNL     1     132.537 136.217 142.571  0.00  0.00    -0.478 OA
ATOM     28  H   UNL     1     131.644 136.328 142.943  0.00  0.00    +0.295 HD
ENDBRANCH  25  27
ENDBRANCH  24  25
ENDBRANCH   3  23
TORSDOF 9
ENDMDL
MODEL 5
REMARK VINA RESULT:    -6.535     20.328     24.007
REMARK INTER + INTRA:         -10.101
REMARK INTER:                  -9.364
REMARK INTRA:                  -0.737
REMARK UNBOUND:                -0.700
REMARK  Name = 
REMARK  11 active torsions:
REMARK  status: ('A' for Active; 'I' for Inactive)
REMARK    1  A    between atoms: C_1  and  O_2
REMARK    2  A    between atoms: O_2  and  C_3
REMARK    3  A    between atoms: C_5  and  C_21
REMARK    4  A    between atoms: C_7  and  C_10
REMARK    5  A    between atoms: C_8  and  O_9
REMARK    6  A    between atoms: C_11  and  C_12
REMARK    7  A    between atoms: C_14  and  O_19
REMARK    8  A    between atoms: C_15  and  O_18
REMARK    9  A    between atoms: O_19  and  C_20
REMARK   10  A    between atoms: C_22  and  C_23
REMARK   11  A    between atoms: C_23  and  O_25
REMARK                            x       y       z     vdW  Elec       q    Type
REMARK                         _______ _______ _______ _____ _____    ______ ____
ROOT
ATOM      1  C   UNL     1     119.955 141.119 124.796  0.00  0.00    +0.162 A 
ATOM      2  C   UNL     1     120.610 141.607 125.929  0.00  0.00    +0.057 A 
ATOM      3  C   UNL     1     122.001 141.795 125.937  0.00  0.00    -0.021 A 
ATOM      4  C   UNL     1     122.730 141.531 124.767  0.00  0.00    +0.019 A 
ATOM      5  C   UNL     1     122.093 141.055 123.612  0.00  0.00    +0.021 A 
ATOM      6  C   UNL     1     120.704 140.839 123.642  0.00  0.00    +0.166 A 
ENDROOT
BRANCH   1   8
ATOM      7  C   UNL     1     117.745 142.031 124.769  0.00  0.00    +0.277 C 
ATOM      8  O   UNL     1     118.602 140.899 124.715  0.00  0.00    -0.491 OA
ENDBRANCH   1   8
BRANCH   6   9
ATOM      9  O   UNL     1     120.032 140.363 122.542  0.00  0.00    -0.503 OA
ATOM     10  H   UNL     1     120.495 140.650 121.740  0.00  0.00    +0.292 HD
ENDBRANCH   6   9
BRANCH   5  11
ATOM     11  C   UNL     1     122.893 140.848 122.394  0.00  0.00    +0.012 C 
ATOM     12  C   UNL     1     124.123 141.363 122.233  0.00  0.00    +0.009 C 
BRANCH  12  13
ATOM     13  C   UNL     1     124.974 141.135 121.050  0.00  0.00    -0.021 A 
ATOM     14  C   UNL     1     125.225 142.121 120.082  0.00  0.00    +0.057 A 
ATOM     15  C   UNL     1     126.047 141.893 118.959  0.00  0.00    +0.162 A 
ATOM     16  C   UNL     1     126.634 140.634 118.819  0.00  0.00    +0.158 A 
ATOM     17  C   UNL     1     126.409 139.647 119.785  0.00  0.00    +0.050 A 
ATOM     18  C   UNL     1     125.595 139.895 120.893  0.00  0.00    +0.012 A 
BRANCH  16  19
ATOM     19  O   UNL     1     127.441 140.215 117.801  0.00  0.00    -0.503 OA
ATOM     20  H   UNL     1     127.624 140.942 117.198  0.00  0.00    +0.292 HD
ENDBRANCH  16  19
BRANCH  15  21
ATOM     21  O   UNL     1     126.116 143.000 118.163  0.00  0.00    -0.491 OA
ATOM     22  C   UNL     1     125.291 143.151 117.025  0.00  0.00    +0.277 C 
ENDBRANCH  15  21
ENDBRANCH  12  13
ENDBRANCH   5  11
BRANCH   3  23
ATOM     23  C   UNL     1     122.703 142.332 127.116  0.00  0.00    +0.015 C 
ATOM     24  C   UNL     1     123.693 143.240 127.058  0.00  0.00    +0.092 C 
BRANCH  24  25
ATOM     25  C   UNL     1     124.333 143.702 128.303  0.00  0.00    +0.330 C 
ATOM     26  O   UNL     1     123.770 144.340 129.174  0.00  0.00    -0.246 OA
BRANCH  25  27
ATOM     27  O   UNL     1     125.627 143.334 128.379  0.00  0.00    -0.478 OA
ATOM     28  H   UNL     1     125.932 143.032 129.254  0.00  0.00    +0.295 HD
ENDBRANCH  25  27
ENDBRANCH  24  25
ENDBRANCH   3  23
TORSDOF 9
ENDMDL
MODEL 6
REMARK VINA RESULT:    -6.394     23.413     26.899
REMARK INTER + INTRA:          -9.898
REMARK INTER:                  -9.161
REMARK INTRA:                  -0.737
REMARK UNBOUND:                -0.700
REMARK  Name = 
REMARK  11 active torsions:
REMARK  status: ('A' for Active; 'I' for Inactive)
REMARK    1  A    between atoms: C_1  and  O_2
REMARK    2  A    between atoms: O_2  and  C_3
REMARK    3  A    between atoms: C_5  and  C_21
REMARK    4  A    between atoms: C_7  and  C_10
REMARK    5  A    between atoms: C_8  and  O_9
REMARK    6  A    between atoms: C_11  and  C_12
REMARK    7  A    between atoms: C_14  and  O_19
REMARK    8  A    between atoms: C_15  and  O_18
REMARK    9  A    between atoms: O_19  and  C_20
REMARK   10  A    between atoms: C_22  and  C_23
REMARK   11  A    between atoms: C_23  and  O_25
REMARK                            x       y       z     vdW  Elec       q    Type
REMARK                         _______ _______ _______ _____ _____    ______ ____
ROOT
ATOM      1  C   UNL     1     121.068 143.193 118.246  0.00  0.00    +0.162 A 
ATOM      2  C   UNL     1     122.104 142.393 117.758  0.00  0.00    +0.057 A 
ATOM      3  C   UNL     1     123.293 142.222 118.484  0.00  0.00    -0.021 A 
ATOM      4  C   UNL     1     123.413 142.829 119.744  0.00  0.00    +0.019 A 
ATOM      5  C   UNL     1     122.381 143.625 120.264  0.00  0.00    +0.021 A 
ATOM      6  C   UNL     1     121.217 143.811 119.498  0.00  0.00    +0.166 A 
ENDROOT
BRANCH   1   8
ATOM      7  C   UNL     1     119.924 144.185 116.396  0.00  0.00    +0.277 C 
ATOM      8  O   UNL     1     119.883 143.417 117.591  0.00  0.00    -0.491 OA
ENDBRANCH   1   8
BRANCH   6   9
ATOM      9  O   UNL     1     120.180 144.589 119.955  0.00  0.00    -0.503 OA
ATOM     10  H   UNL     1     120.517 145.205 120.624  0.00  0.00    +0.292 HD
ENDBRANCH   6   9
BRANCH   5  11
ATOM     11  C   UNL     1     122.533 144.193 121.612  0.00  0.00    +0.012 C 
ATOM     12  C   UNL     1     123.325 145.246 121.875  0.00  0.00    +0.009 C 
BRANCH  12  13
ATOM     13  C   UNL     1     123.463 145.875 123.203  0.00  0.00    -0.021 A 
ATOM     14  C   UNL     1     124.289 146.984 123.445  0.00  0.00    +0.057 A 
ATOM     15  C   UNL     1     124.407 147.582 124.717  0.00  0.00    +0.162 A 
ATOM     16  C   UNL     1     123.662 147.042 125.768  0.00  0.00    +0.158 A 
ATOM     17  C   UNL     1     122.820 145.949 125.538  0.00  0.00    +0.050 A 
ATOM     18  C   UNL     1     122.713 145.376 124.268  0.00  0.00    +0.012 A 
BRANCH  16  19
ATOM     19  O   UNL     1     123.653 147.464 127.066  0.00  0.00    -0.503 OA
ATOM     20  H   UNL     1     123.939 148.381 127.122  0.00  0.00    +0.292 HD
ENDBRANCH  16  19
BRANCH  15  21
ATOM     21  O   UNL     1     125.284 148.628 124.693  0.00  0.00    -0.491 OA
ATOM     22  C   UNL     1     126.382 148.658 123.804  0.00  0.00    +0.277 C 
ENDBRANCH  15  21
ENDBRANCH  12  13
ENDBRANCH   5  11
BRANCH   3  23
ATOM     23  C   UNL     1     124.384 141.362 117.994  0.00  0.00    +0.015 C 
ATOM     24  C   UNL     1     125.449 140.998 118.729  0.00  0.00    +0.092 C 
BRANCH  24  25
ATOM     25  C   UNL     1     126.488 140.139 118.133  0.00  0.00    +0.330 C 
ATOM     26  O   UNL     1     126.850 139.072 118.593  0.00  0.00    -0.246 OA
BRANCH  25  27
ATOM     27  O   UNL     1     127.000 140.666 117.004  0.00  0.00    -0.478 OA
ATOM     28  H   UNL     1     127.579 140.079 116.486  0.00  0.00    +0.295 HD
ENDBRANCH  25  27
ENDBRANCH  24  25
ENDBRANCH   3  23
TORSDOF 9
ENDMDL
MODEL 7
REMARK VINA RESULT:    -6.388      1.874      8.247
REMARK INTER + INTRA:          -9.888
REMARK INTER:                  -9.321
REMARK INTRA:                  -0.567
REMARK UNBOUND:                -0.700
REMARK  Name = 
REMARK  11 active torsions:
REMARK  status: ('A' for Active; 'I' for Inactive)
REMARK    1  A    between atoms: C_1  and  O_2
REMARK    2  A    between atoms: O_2  and  C_3
REMARK    3  A    between atoms: C_5  and  C_21
REMARK    4  A    between atoms: C_7  and  C_10
REMARK    5  A    between atoms: C_8  and  O_9
REMARK    6  A    between atoms: C_11  and  C_12
REMARK    7  A    between atoms: C_14  and  O_19
REMARK    8  A    between atoms: C_15  and  O_18
REMARK    9  A    between atoms: O_19  and  C_20
REMARK   10  A    between atoms: C_22  and  C_23
REMARK   11  A    between atoms: C_23  and  O_25
REMARK                            x       y       z     vdW  Elec       q    Type
REMARK                         _______ _______ _______ _____ _____    ______ ____
ROOT
ATOM      1  C   UNL     1     141.449 138.566 140.663  0.00  0.00    +0.162 A 
ATOM      2  C   UNL     1     141.338 138.522 139.271  0.00  0.00    +0.057 A 
ATOM      3  C   UNL     1     140.119 138.208 138.651  0.00  0.00    -0.021 A 
ATOM      4  C   UNL     1     138.987 137.983 139.450  0.00  0.00    +0.019 A 
ATOM      5  C   UNL     1     139.069 138.036 140.849  0.00  0.00    +0.021 A 
ATOM      6  C   UNL     1     140.311 138.316 141.446  0.00  0.00    +0.166 A 
ENDROOT
BRANCH   1   8
ATOM      7  C   UNL     1     143.599 139.613 140.662  0.00  0.00    +0.277 C 
ATOM      8  O   UNL     1     142.607 138.856 141.341  0.00  0.00    -0.491 OA
ENDBRANCH   1   8
BRANCH   6   9
ATOM      9  O   UNL     1     140.450 138.369 142.813  0.00  0.00    -0.503 OA
ATOM     10  H   UNL     1     141.230 137.856 143.072  0.00  0.00    +0.292 HD
ENDBRANCH   6   9
BRANCH   5  11
ATOM     11  C   UNL     1     137.843 137.849 141.641  0.00  0.00    +0.012 C 
ATOM     12  C   UNL     1     137.543 136.694 142.259  0.00  0.00    +0.009 C 
BRANCH  12  13
ATOM     13  C   UNL     1     136.350 136.485 143.102  0.00  0.00    -0.021 A 
ATOM     14  C   UNL     1     135.049 136.398 142.583  0.00  0.00    +0.057 A 
ATOM     15  C   UNL     1     133.917 136.191 143.398  0.00  0.00    +0.162 A 
ATOM     16  C   UNL     1     134.113 136.061 144.775  0.00  0.00    +0.158 A 
ATOM     17  C   UNL     1     135.407 136.127 145.305  0.00  0.00    +0.050 A 
ATOM     18  C   UNL     1     136.515 136.327 144.478  0.00  0.00    +0.012 A 
BRANCH  16  19
ATOM     19  O   UNL     1     133.152 135.875 145.725  0.00  0.00    -0.503 OA
ATOM     20  H   UNL     1     133.153 134.962 146.028  0.00  0.00    +0.292 HD
ENDBRANCH  16  19
BRANCH  15  21
ATOM     21  O   UNL     1     132.771 136.162 142.656  0.00  0.00    -0.491 OA
ATOM     22  C   UNL     1     131.931 135.026 142.628  0.00  0.00    +0.277 C 
ENDBRANCH  15  21
ENDBRANCH  12  13
ENDBRANCH   5  11
BRANCH   3  23
ATOM     23  C   UNL     1     139.980 138.182 137.184  0.00  0.00    +0.015 C 
ATOM     24  C   UNL     1     140.913 137.699 136.345  0.00  0.00    +0.092 C 
BRANCH  24  25
ATOM     25  C   UNL     1     140.673 137.730 134.891  0.00  0.00    +0.330 C 
ATOM     26  O   UNL     1     140.503 138.744 134.239  0.00  0.00    -0.246 OA
BRANCH  25  27
ATOM     27  O   UNL     1     140.667 136.497 134.348  0.00  0.00    -0.478 OA
ATOM     28  H   UNL     1     141.541 136.097 134.191  0.00  0.00    +0.295 HD
ENDBRANCH  25  27
ENDBRANCH  24  25
ENDBRANCH   3  23
TORSDOF 9
ENDMDL
MODEL 8
REMARK VINA RESULT:    -6.256     24.320     29.211
REMARK INTER + INTRA:          -9.699
REMARK INTER:                  -8.942
REMARK INTRA:                  -0.758
REMARK UNBOUND:                -0.700
REMARK  Name = 
REMARK  11 active torsions:
REMARK  status: ('A' for Active; 'I' for Inactive)
REMARK    1  A    between atoms: C_1  and  O_2
REMARK    2  A    between atoms: O_2  and  C_3
REMARK    3  A    between atoms: C_5  and  C_21
REMARK    4  A    between atoms: C_7  and  C_10
REMARK    5  A    between atoms: C_8  and  O_9
REMARK    6  A    between atoms: C_11  and  C_12
REMARK    7  A    between atoms: C_14  and  O_19
REMARK    8  A    between atoms: C_15  and  O_18
REMARK    9  A    between atoms: O_19  and  C_20
REMARK   10  A    between atoms: C_22  and  C_23
REMARK   11  A    between atoms: C_23  and  O_25
REMARK                            x       y       z     vdW  Elec       q    Type
REMARK                         _______ _______ _______ _____ _____    ______ ____
ROOT
ATOM      1  C   UNL     1     117.536 142.186 116.416  0.00  0.00    +0.162 A 
ATOM      2  C   UNL     1     117.059 141.801 117.672  0.00  0.00    +0.057 A 
ATOM      3  C   UNL     1     117.940 141.423 118.697  0.00  0.00    -0.021 A 
ATOM      4  C   UNL     1     119.323 141.482 118.462  0.00  0.00    +0.019 A 
ATOM      5  C   UNL     1     119.827 141.879 117.214  0.00  0.00    +0.021 A 
ATOM      6  C   UNL     1     118.922 142.217 116.193  0.00  0.00    +0.166 A 
ENDROOT
BRANCH   1   8
ATOM      7  C   UNL     1     115.545 143.272 115.658  0.00  0.00    +0.277 C 
ATOM      8  O   UNL     1     116.739 142.559 115.363  0.00  0.00    -0.491 OA
ENDBRANCH   1   8
BRANCH   6   9
ATOM      9  O   UNL     1     119.362 142.603 114.950  0.00  0.00    -0.503 OA
ATOM     10  H   UNL     1     119.102 141.932 114.300  0.00  0.00    +0.292 HD
ENDBRANCH   6   9
BRANCH   5  11
ATOM     11  C   UNL     1     121.284 141.979 117.036  0.00  0.00    +0.012 C 
ATOM     12  C   UNL     1     122.159 141.702 118.018  0.00  0.00    +0.009 C 
BRANCH  12  13
ATOM     13  C   UNL     1     123.626 141.740 117.862  0.00  0.00    -0.021 A 
ATOM     14  C   UNL     1     124.463 140.669 118.211  0.00  0.00    +0.057 A 
ATOM     15  C   UNL     1     125.864 140.715 118.051  0.00  0.00    +0.162 A 
ATOM     16  C   UNL     1     126.427 141.876 117.517  0.00  0.00    +0.158 A 
ATOM     17  C   UNL     1     125.603 142.945 117.147  0.00  0.00    +0.050 A 
ATOM     18  C   UNL     1     124.217 142.876 117.308  0.00  0.00    +0.012 A 
BRANCH  16  19
ATOM     19  O   UNL     1     127.752 142.119 117.303  0.00  0.00    -0.503 OA
ATOM     20  H   UNL     1     127.903 142.365 116.385  0.00  0.00    +0.292 HD
ENDBRANCH  16  19
BRANCH  15  21
ATOM     21  O   UNL     1     126.449 139.558 118.481  0.00  0.00    -0.491 OA
ATOM     22  C   UNL     1     127.057 139.460 119.753  0.00  0.00    +0.277 C 
ENDBRANCH  15  21
ENDBRANCH  12  13
ENDBRANCH   5  11
BRANCH   3  23
ATOM     23  C   UNL     1     117.453 141.038 120.033  0.00  0.00    +0.015 C 
ATOM     24  C   UNL     1     118.213 140.448 120.973  0.00  0.00    +0.092 C 
BRANCH  24  25
ATOM     25  C   UNL     1     117.619 140.098 122.277  0.00  0.00    +0.330 C 
ATOM     26  O   UNL     1     116.434 139.894 122.464  0.00  0.00    -0.246 OA
BRANCH  25  27
ATOM     27  O   UNL     1     118.544 140.020 123.254  0.00  0.00    -0.478 OA
ATOM     28  H   UNL     1     119.039 140.839 123.437  0.00  0.00    +0.295 HD
ENDBRANCH  25  27
ENDBRANCH  24  25
ENDBRANCH   3  23
TORSDOF 9
ENDMDL
MODEL 9
REMARK VINA RESULT:    -6.215     22.630     27.100
REMARK INTER + INTRA:          -9.640
REMARK INTER:                  -8.977
REMARK INTRA:                  -0.663
REMARK UNBOUND:                -0.700
REMARK  Name = 
REMARK  11 active torsions:
REMARK  status: ('A' for Active; 'I' for Inactive)
REMARK    1  A    between atoms: C_1  and  O_2
REMARK    2  A    between atoms: O_2  and  C_3
REMARK    3  A    between atoms: C_5  and  C_21
REMARK    4  A    between atoms: C_7  and  C_10
REMARK    5  A    between atoms: C_8  and  O_9
REMARK    6  A    between atoms: C_11  and  C_12
REMARK    7  A    between atoms: C_14  and  O_19
REMARK    8  A    between atoms: C_15  and  O_18
REMARK    9  A    between atoms: O_19  and  C_20
REMARK   10  A    between atoms: C_22  and  C_23
REMARK   11  A    between atoms: C_23  and  O_25
REMARK                            x       y       z     vdW  Elec       q    Type
REMARK                         _______ _______ _______ _____ _____    ______ ____
ROOT
ATOM      1  C   UNL     1     121.778 142.465 118.028  0.00  0.00    +0.162 A 
ATOM      2  C   UNL     1     123.077 141.969 117.896  0.00  0.00    +0.057 A 
ATOM      3  C   UNL     1     124.098 142.363 118.774  0.00  0.00    -0.021 A 
ATOM      4  C   UNL     1     123.787 143.234 119.831  0.00  0.00    +0.019 A 
ATOM      5  C   UNL     1     122.487 143.735 119.995  0.00  0.00    +0.021 A 
ATOM      6  C   UNL     1     121.492 143.354 119.078  0.00  0.00    +0.166 A 
ENDROOT
BRANCH   1   8
ATOM      7  C   UNL     1     120.668 142.765 115.932  0.00  0.00    +0.277 C 
ATOM      8  O   UNL     1     120.731 142.135 117.204  0.00  0.00    -0.491 OA
ENDBRANCH   1   8
BRANCH   6   9
ATOM      9  O   UNL     1     120.205 143.823 119.186  0.00  0.00    -0.503 OA
ATOM     10  H   UNL     1     120.225 144.790 119.251  0.00  0.00    +0.292 HD
ENDBRANCH   6   9
BRANCH   5  11
ATOM     11  C   UNL     1     122.199 144.600 121.150  0.00  0.00    +0.012 C 
ATOM     12  C   UNL     1     123.160 145.236 121.841  0.00  0.00    +0.009 C 
BRANCH  12  13
ATOM     13  C   UNL     1     122.907 146.150 122.971  0.00  0.00    -0.021 A 
ATOM     14  C   UNL     1     123.262 145.851 124.296  0.00  0.00    +0.057 A 
ATOM     15  C   UNL     1     123.022 146.737 125.367  0.00  0.00    +0.162 A 
ATOM     16  C   UNL     1     122.412 147.960 125.084  0.00  0.00    +0.158 A 
ATOM     17  C   UNL     1     122.069 148.281 123.766  0.00  0.00    +0.050 A 
ATOM     18  C   UNL     1     122.321 147.391 122.718  0.00  0.00    +0.012 A 
BRANCH  16  19
ATOM     19  O   UNL     1     122.082 148.937 125.978  0.00  0.00    -0.503 OA
ATOM     20  H   UNL     1     121.962 148.561 126.855  0.00  0.00    +0.292 HD
ENDBRANCH  16  19
BRANCH  15  21
ATOM     21  O   UNL     1     123.443 146.205 126.553  0.00  0.00    -0.491 OA
ATOM     22  C   UNL     1     123.281 144.833 126.851  0.00  0.00    +0.277 C 
ENDBRANCH  15  21
ENDBRANCH  12  13
ENDBRANCH   5  11
BRANCH   3  23
ATOM     23  C   UNL     1     125.466 141.829 118.662  0.00  0.00    +0.015 C 
ATOM     24  C   UNL     1     126.215 141.897 117.547  0.00  0.00    +0.092 C 
BRANCH  24  25
ATOM     25  C   UNL     1     127.572 141.321 117.543  0.00  0.00    +0.330 C 
ATOM     26  O   UNL     1     128.580 141.929 117.232  0.00  0.00    -0.246 OA
BRANCH  25  27
ATOM     27  O   UNL     1     127.581 140.031 117.932  0.00  0.00    -0.478 OA
ATOM     28  H   UNL     1     126.708 139.632 118.099  0.00  0.00    +0.295 HD
ENDBRANCH  25  27
ENDBRANCH  24  25
ENDBRANCH   3  23
TORSDOF 9
ENDMDL
