ligands_mgl/papulacandin B.pdb
 OpenBabel10202517283D

128131  0  0  1  0  0  0  0  0999 V2000
    9.2310   -5.2830    4.8860 C   0  0  0  0  0  0  0  0  0  0  0  0
    9.5140   -6.3940    3.8790 C   0  0  0  0  0  0  0  0  0  0  0  0
   10.9200   -6.9990    4.0580 C   0  0  1  0  0  0  0  0  0  0  0  0
   11.0400   -7.7270    5.4020 C   0  0  0  0  0  0  0  0  0  0  0  0
   11.3110   -7.9730    2.9220 C   0  0  0  0  0  0  0  0  0  0  0  0
   11.4630   -7.3480    1.5260 C   0  0  0  0  0  0  0  0  0  0  0  0
   12.4530   -6.2260    1.3460 C   0  0  0  0  0  0  0  0  0  0  0  0
   13.5430   -5.9770    2.0860 C   0  0  0  0  0  0  0  0  0  0  0  0
   14.3920   -4.8280    1.8320 C   0  0  0  0  0  0  0  0  0  0  0  0
   15.5130   -4.4610    2.4840 C   0  0  0  0  0  0  0  0  0  0  0  0
   16.1400   -5.2710    3.6020 C   0  0  0  0  0  0  0  0  0  0  0  0
   16.3150   -3.2150    2.1040 C   0  0  1  0  0  0  0  0  0  0  0  0
   15.8320   -2.2860    0.9550 C   0  0  0  0  0  0  0  0  0  0  0  0
   14.5500   -1.4850    1.1380 C   0  0  0  0  0  0  0  0  0  0  0  0
   13.5300   -1.4870    0.2610 C   0  0  0  0  0  0  0  0  0  0  0  0
   12.4220   -0.5370    0.2730 C   0  0  0  0  0  0  0  0  0  0  0  0
   11.4120   -0.6380   -0.6050 C   0  0  0  0  0  0  0  0  0  0  0  0
   10.3170    0.3060   -0.9210 C   0  0  0  0  0  0  0  0  0  0  0  0
    9.5270    0.0090   -1.8110 O   0  0  0  0  0  0  0  0  0  0  0  0
   10.3010    1.4680   -0.2030 O   0  0  0  0  0  0  0  0  0  0  0  0
    9.3750    2.4680   -0.7360 C   0  0  1  0  0  0  0  0  0  0  0  0
    8.3200    2.9870    0.2680 C   0  0  1  0  0  0  0  0  0  0  0  0
    7.3950    3.9660   -0.5360 C   0  0  2  0  0  0  0  0  0  0  0  0
    8.1610    5.0890   -1.0680 O   0  0  0  0  0  0  0  0  0  0  0  0
    9.1910    4.6630   -1.9860 C   0  0  2  0  0  0  0  0  0  0  0  0
   10.1760    3.6730   -1.2810 C   0  0  2  0  0  0  0  0  0  0  0  0
   11.1990    3.1830   -2.1730 O   0  0  0  0  0  0  0  0  0  0  0  0
    9.9260    5.7870   -2.6820 C   0  0  0  0  0  0  0  0  0  0  0  0
    9.7580    5.6590   -4.0630 C   0  0  0  0  0  0  0  0  0  0  0  0
    8.8490    4.5410   -4.3610 C   0  0  0  0  0  0  0  0  0  0  0  0
    8.5740    3.9320   -3.0920 O   0  0  0  0  0  0  0  0  0  0  0  0
   10.4410    6.4480   -4.9820 C   0  0  0  0  0  0  0  0  0  0  0  0
   11.3300    7.3980   -4.4970 C   0  0  0  0  0  0  0  0  0  0  0  0
   11.5140    7.5560   -3.1120 C   0  0  0  0  0  0  0  0  0  0  0  0
   10.8140    6.7420   -2.2090 C   0  0  0  0  0  0  0  0  0  0  0  0
   11.0430    6.8510   -0.8720 O   0  0  0  0  0  0  0  0  0  0  0  0
   12.0600    8.1770   -5.3330 O   0  0  0  0  0  0  0  0  0  0  0  0
    6.2160    4.4530    0.3340 C   0  0  0  0  0  0  0  0  0  0  0  0
    5.3700    5.3660   -0.3660 O   0  0  0  0  0  0  0  0  0  0  0  0
    7.5370    1.9430    0.8760 O   0  0  0  0  0  0  0  0  0  0  0  0
    8.1740    1.1100    1.8680 C   0  0  1  0  0  0  0  0  0  0  0  0
    8.8320    1.9340    3.0170 C   0  0  1  0  0  0  0  0  0  0  0  0
    9.1490    1.1220    4.2770 C   0  0  2  0  0  0  0  0  0  0  0  0
    8.0440    0.1440    4.6360 C   0  0  2  0  0  0  0  0  0  0  0  0
    7.7610   -0.6880    3.3850 C   0  0  2  0  0  0  0  0  0  0  0  0
    7.2050    0.1670    2.3660 O   0  0  0  0  0  0  0  0  0  0  0  0
    6.8430   -1.8680    3.7300 C   0  0  0  0  0  0  0  0  0  0  0  0
    6.5460   -2.7110    2.6010 O   0  0  0  0  0  0  0  0  0  0  0  0
    7.5820   -3.3740    2.0400 C   0  0  0  0  0  0  0  0  0  0  0  0
    8.7570   -3.2910    2.3690 O   0  0  0  0  0  0  0  0  0  0  0  0
    7.1440   -4.2530    0.9410 C   0  0  0  0  0  0  0  0  0  0  0  0
    5.8600   -4.4760    0.6170 C   0  0  0  0  0  0  0  0  0  0  0  0
    5.4880   -5.3380   -0.4910 C   0  0  0  0  0  0  0  0  0  0  0  0
    4.2080   -5.5850   -0.8270 C   0  0  0  0  0  0  0  0  0  0  0  0
    3.8690   -6.4190   -1.9480 C   0  0  0  0  0  0  0  0  0  0  0  0
    2.6000   -6.7070   -2.2890 C   0  0  0  0  0  0  0  0  0  0  0  0
    2.2020   -7.5720   -3.4570 C   0  0  1  0  0  0  0  0  0  0  0  0
    0.8820   -7.1020   -4.0830 C   0  0  0  0  0  0  0  0  0  0  0  0
    0.4490   -7.9760   -5.2540 C   0  0  0  0  0  0  0  0  0  0  0  0
    3.2270   -7.5600   -4.4450 O   0  0  0  0  0  0  0  0  0  0  0  0
    6.8790    0.8580    5.0610 O   0  0  0  0  0  0  0  0  0  0  0  0
    9.3630    2.0160    5.3810 O   0  0  0  0  0  0  0  0  0  0  0  0
   10.0910    2.5240    2.6160 O   0  0  0  0  0  0  0  0  0  0  0  0
   16.5520   -2.4130    3.2650 O   0  0  0  0  0  0  0  0  0  0  0  0
    9.1360   -5.6730    5.9030 H   0  0  0  0  0  0  0  0  0  0  0  0
    8.2920   -4.7790    4.6440 H   0  0  0  0  0  0  0  0  0  0  0  0
   10.0310   -4.5340    4.8760 H   0  0  0  0  0  0  0  0  0  0  0  0
    8.7450   -7.1710    3.9720 H   0  0  0  0  0  0  0  0  0  0  0  0
    9.4130   -5.9700    2.8750 H   0  0  0  0  0  0  0  0  0  0  0  0
   11.6410   -6.1750    4.0760 H   0  0  0  0  0  0  0  0  0  0  0  0
   10.3130   -8.5420    5.4810 H   0  0  0  0  0  0  0  0  0  0  0  0
   12.0420   -8.1510    5.5230 H   0  0  0  0  0  0  0  0  0  0  0  0
   10.8800   -7.0440    6.2420 H   0  0  0  0  0  0  0  0  0  0  0  0
   12.2540   -8.4720    3.1810 H   0  0  0  0  0  0  0  0  0  0  0  0
   10.5580   -8.7700    2.8580 H   0  0  0  0  0  0  0  0  0  0  0  0
   11.7370   -8.1430    0.8190 H   0  0  0  0  0  0  0  0  0  0  0  0
   10.4830   -6.9870    1.1940 H   0  0  0  0  0  0  0  0  0  0  0  0
   12.2180   -5.5650    0.5130 H   0  0  0  0  0  0  0  0  0  0  0  0
   13.7970   -6.6390    2.9060 H   0  0  0  0  0  0  0  0  0  0  0  0
   14.0430   -4.2120    1.0070 H   0  0  0  0  0  0  0  0  0  0  0  0
   17.1800   -5.5080    3.3560 H   0  0  0  0  0  0  0  0  0  0  0  0
   16.1280   -4.7090    4.5410 H   0  0  0  0  0  0  0  0  0  0  0  0
   15.6400   -6.2220    3.7930 H   0  0  0  0  0  0  0  0  0  0  0  0
   17.3040   -3.5780    1.7920 H   0  0  0  0  0  0  0  0  0  0  0  0
   16.6170   -1.5270    0.8180 H   0  0  0  0  0  0  0  0  0  0  0  0
   15.8030   -2.8570    0.0180 H   0  0  0  0  0  0  0  0  0  0  0  0
   14.5460   -0.7960    1.9790 H   0  0  0  0  0  0  0  0  0  0  0  0
   13.5680   -2.1760   -0.5850 H   0  0  0  0  0  0  0  0  0  0  0  0
   12.4980    0.3160    0.9390 H   0  0  0  0  0  0  0  0  0  0  0  0
   11.3630   -1.5050   -1.2620 H   0  0  0  0  0  0  0  0  0  0  0  0
    8.8160    2.0250   -1.5670 H   0  0  0  0  0  0  0  0  0  0  0  0
    8.7950    3.5910    1.0450 H   0  0  0  0  0  0  0  0  0  0  0  0
    6.9330    3.4450   -1.3840 H   0  0  0  0  0  0  0  0  0  0  0  0
   10.6900    4.1670   -0.4480 H   0  0  0  0  0  0  0  0  0  0  0  0
   10.7630    3.0200   -3.0290 H   0  0  0  0  0  0  0  0  0  0  0  0
    9.3330    3.7930   -4.9940 H   0  0  0  0  0  0  0  0  0  0  0  0
    7.9160    4.8780   -4.8170 H   0  0  0  0  0  0  0  0  0  0  0  0
   10.3100    6.2940   -6.0510 H   0  0  0  0  0  0  0  0  0  0  0  0
   12.2330    8.2960   -2.7730 H   0  0  0  0  0  0  0  0  0  0  0  0
   11.7110    7.5430   -0.7330 H   0  0  0  0  0  0  0  0  0  0  0  0
   11.8590    7.9300   -6.2550 H   0  0  0  0  0  0  0  0  0  0  0  0
    5.5850    3.6020    0.6150 H   0  0  0  0  0  0  0  0  0  0  0  0
    6.5550    4.9430    1.2510 H   0  0  0  0  0  0  0  0  0  0  0  0
    5.8180    6.2290   -0.3500 H   0  0  0  0  0  0  0  0  0  0  0  0
    8.9250    0.5080    1.3600 H   0  0  0  0  0  0  0  0  0  0  0  0
    8.1780    2.7750    3.2760 H   0  0  0  0  0  0  0  0  0  0  0  0
   10.0870    0.5700    4.1400 H   0  0  0  0  0  0  0  0  0  0  0  0
    8.3610   -0.4820    5.4780 H   0  0  0  0  0  0  0  0  0  0  0  0
    8.7070   -1.0820    3.0000 H   0  0  0  0  0  0  0  0  0  0  0  0
    7.3020   -2.4890    4.5130 H   0  0  0  0  0  0  0  0  0  0  0  0
    5.8830   -1.5180    4.1170 H   0  0  0  0  0  0  0  0  0  0  0  0
    7.9590   -4.7340    0.4110 H   0  0  0  0  0  0  0  0  0  0  0  0
    5.0590   -3.9980    1.1680 H   0  0  0  0  0  0  0  0  0  0  0  0
    6.2950   -5.7820   -1.0630 H   0  0  0  0  0  0  0  0  0  0  0  0
    3.3990   -5.1460   -0.2480 H   0  0  0  0  0  0  0  0  0  0  0  0
    4.6890   -6.8370   -2.5290 H   0  0  0  0  0  0  0  0  0  0  0  0
    1.7870   -6.3220   -1.6810 H   0  0  0  0  0  0  0  0  0  0  0  0
    2.0890   -8.6020   -3.1020 H   0  0  0  0  0  0  0  0  0  0  0  0
    0.0890   -7.1080   -3.3260 H   0  0  0  0  0  0  0  0  0  0  0  0
    0.9820   -6.0710   -4.4450 H   0  0  0  0  0  0  0  0  0  0  0  0
    0.3200   -9.0170   -4.9390 H   0  0  0  0  0  0  0  0  0  0  0  0
   -0.5060   -7.6220   -5.6530 H   0  0  0  0  0  0  0  0  0  0  0  0
    1.1820   -7.9500   -6.0660 H   0  0  0  0  0  0  0  0  0  0  0  0
    3.3640   -6.6310   -4.6980 H   0  0  0  0  0  0  0  0  0  0  0  0
    7.2070    1.6150    5.5870 H   0  0  0  0  0  0  0  0  0  0  0  0
    9.9790    2.7020    5.0550 H   0  0  0  0  0  0  0  0  0  0  0  0
   10.6410    1.8200    2.2210 H   0  0  0  0  0  0  0  0  0  0  0  0
   15.8250   -2.5760    3.8880 H   0  0  0  0  0  0  0  0  0  0  0  0
  1  2  1  0  0  0  0
  1 65  1  0  0  0  0
  1 66  1  0  0  0  0
  1 67  1  0  0  0  0
  2  3  1  0  0  0  0
  2 68  1  0  0  0  0
  2 69  1  0  0  0  0
  3  4  1  0  0  0  0
  3  5  1  0  0  0  0
  3 70  1  6  0  0  0
  4 71  1  0  0  0  0
  4 72  1  0  0  0  0
  4 73  1  0  0  0  0
  5  6  1  0  0  0  0
  5 74  1  0  0  0  0
  5 75  1  0  0  0  0
  6  7  1  0  0  0  0
  6 76  1  0  0  0  0
  6 77  1  0  0  0  0
  7  8  2  0  0  0  0
  7 78  1  0  0  0  0
  8  9  1  0  0  0  0
  8 79  1  0  0  0  0
  9 10  2  0  0  0  0
  9 80  1  0  0  0  0
 10 11  1  0  0  0  0
 10 12  1  0  0  0  0
 11 81  1  0  0  0  0
 11 82  1  0  0  0  0
 11 83  1  0  0  0  0
 12 13  1  0  0  0  0
 12 64  1  0  0  0  0
 12 84  1  6  0  0  0
 13 14  1  0  0  0  0
 13 85  1  0  0  0  0
 13 86  1  0  0  0  0
 14 15  2  0  0  0  0
 14 87  1  0  0  0  0
 15 16  1  0  0  0  0
 15 88  1  0  0  0  0
 16 17  2  0  0  0  0
 16 89  1  0  0  0  0
 17 18  1  0  0  0  0
 17 90  1  0  0  0  0
 18 19  2  0  0  0  0
 18 20  1  0  0  0  0
 20 21  1  0  0  0  0
 21 22  1  0  0  0  0
 21 26  1  0  0  0  0
 21 91  1  6  0  0  0
 22 23  1  0  0  0  0
 22 40  1  0  0  0  0
 22 92  1  1  0  0  0
 23 24  1  0  0  0  0
 23 93  1  6  0  0  0
 23 38  1  0  0  0  0
 25 24  1  1  0  0  0
 25 26  1  0  0  0  0
 25 28  1  0  0  0  0
 25 31  1  0  0  0  0
 26 94  1  1  0  0  0
 26 27  1  0  0  0  0
 27 95  1  0  0  0  0
 28 29  2  0  0  0  0
 28 35  1  0  0  0  0
 29 30  1  0  0  0  0
 29 32  1  0  0  0  0
 30 31  1  0  0  0  0
 30 96  1  0  0  0  0
 30 97  1  0  0  0  0
 32 33  2  0  0  0  0
 32 98  1  0  0  0  0
 33 34  1  0  0  0  0
 33 37  1  0  0  0  0
 34 35  2  0  0  0  0
 34 99  1  0  0  0  0
 35 36  1  0  0  0  0
 36100  1  0  0  0  0
 37101  1  0  0  0  0
 38 39  1  0  0  0  0
 38102  1  0  0  0  0
 38103  1  0  0  0  0
 39104  1  0  0  0  0
 40 41  1  0  0  0  0
 41 42  1  0  0  0  0
 41 46  1  0  0  0  0
 41105  1  6  0  0  0
 42 43  1  0  0  0  0
 42 63  1  0  0  0  0
 42106  1  1  0  0  0
 43 44  1  0  0  0  0
 43107  1  6  0  0  0
 43 62  1  0  0  0  0
 44 45  1  0  0  0  0
 44108  1  1  0  0  0
 44 61  1  0  0  0  0
 45 46  1  0  0  0  0
 45109  1  6  0  0  0
 45 47  1  0  0  0  0
 47 48  1  0  0  0  0
 47110  1  0  0  0  0
 47111  1  0  0  0  0
 48 49  1  0  0  0  0
 49 50  2  0  0  0  0
 49 51  1  0  0  0  0
 51 52  2  0  0  0  0
 51112  1  0  0  0  0
 52 53  1  0  0  0  0
 52113  1  0  0  0  0
 53 54  2  0  0  0  0
 53114  1  0  0  0  0
 54 55  1  0  0  0  0
 54115  1  0  0  0  0
 55 56  2  0  0  0  0
 55116  1  0  0  0  0
 56 57  1  0  0  0  0
 56117  1  0  0  0  0
 57 58  1  0  0  0  0
 57 60  1  0  0  0  0
 57118  1  1  0  0  0
 58 59  1  0  0  0  0
 58119  1  0  0  0  0
 58120  1  0  0  0  0
 59121  1  0  0  0  0
 59122  1  0  0  0  0
 59123  1  0  0  0  0
 60124  1  0  0  0  0
 61125  1  0  0  0  0
 62126  1  0  0  0  0
 63127  1  0  0  0  0
 64128  1  0  0  0  0
M  END
>  <COMPND>
    UNNAMED

>  <AUTHOR>
    GENERATED BY OPEN BABEL 3.1.1

>  <MASTER>
        0    0    0    0    0    0    0    0  128    0  128    0

$$$$
