MODEL 1
REMARK VINA RESULT:    -6.021      0.000      0.000
REMARK INTER + INTRA:         -12.278
REMARK INTER:                 -10.420
REMARK INTRA:                  -1.857
REMARK UNBOUND:                -1.857
REMARK  Name = 
REMARK  18 active torsions:
REMARK  status: ('A' for Active; 'I' for Inactive)
REMARK    1  A    between atoms: C_2  and  C_33
REMARK    2  A    between atoms: C_3  and  O_21
REMARK    3  A    between atoms: C_4  and  O_20
REMARK    4  A    between atoms: C_5  and  O_19
REMARK    5  A    between atoms: C_6  and  N_7
REMARK    6  A    between atoms: N_7  and  C_8
REMARK    7  A    between atoms: C_10  and  C_17
REMARK    8  A    between atoms: C_11  and  O_16
REMARK    9  A    between atoms: C_12  and  O_15
REMARK   10  A    between atoms: C_13  and  O_14
REMARK   11  A    between atoms: C_17  and  O_18
REMARK   12  A    between atoms: O_21  and  C_22
REMARK   13  A    between atoms: C_23  and  O_32
REMARK   14  A    between atoms: C_24  and  O_31
REMARK   15  A    between atoms: C_25  and  O_30
REMARK   16  A    between atoms: C_26  and  C_28
REMARK   17  A    between atoms: C_28  and  O_29
REMARK   18  A    between atoms: C_33  and  O_34
REMARK                            x       y       z     vdW  Elec       q    Type
REMARK                         _______ _______ _______ _____ _____    ______ ____
ROOT
ATOM      1  C   UNL     1     101.226 131.763  74.877  0.00  0.00    +0.029 C 
ATOM      2  C   UNL     1      99.774 132.176  75.200  0.00  0.00    +0.047 C 
ATOM      3  C   UNL     1      98.692 131.106  74.817  0.00  0.00    +0.158 C 
ATOM      4  C   UNL     1      99.057 130.302  73.537  0.00  0.00    +0.174 C 
ATOM      5  C   UNL     1     100.556 130.080  73.262  0.00  0.00    +0.162 C 
ATOM      6  C   UNL     1     101.404 131.353  73.426  0.00  0.00    +0.086 C 
ENDROOT
BRANCH   4   7
ATOM      7  O   UNL     1      98.416 129.010  73.637  0.00  0.00    -0.387 OA
ATOM      8  H   UNL     1      98.198 128.827  74.567  0.00  0.00    +0.210 HD
ENDBRANCH   4   7
BRANCH   5   9
ATOM      9  O   UNL     1     100.752 129.518  71.957  0.00  0.00    -0.388 OA
ATOM     10  H   UNL     1     101.703 129.338  71.856  0.00  0.00    +0.210 HD
ENDBRANCH   5   9
BRANCH   6  11
ATOM     11  N   UNL     1     101.032 132.413  72.454  0.00  0.00    -0.302 NA
ATOM     12  H   UNL     1     100.288 132.046  71.864  0.00  0.00    +0.123 HD
BRANCH  11  13
ATOM     13  C   UNL     1     102.136 132.893  71.590  0.00  0.00    +0.109 C 
ATOM     14  C   UNL     1     103.181 131.848  71.310  0.00  0.00    -0.002 C 
ATOM     15  C   UNL     1     103.239 131.145  70.161  0.00  0.00    -0.016 C 
ATOM     16  C   UNL     1     102.188 131.246  69.094  0.00  0.00    +0.173 C 
ATOM     17  C   UNL     1     101.060 132.282  69.356  0.00  0.00    +0.177 C 
ATOM     18  C   UNL     1     101.559 133.435  70.248  0.00  0.00    +0.166 C 
BRANCH  16  19
ATOM     19  O   UNL     1     101.624 129.942  68.927  0.00  0.00    -0.385 OA
ATOM     20  H   UNL     1     100.664 130.044  68.819  0.00  0.00    +0.210 HD
ENDBRANCH  16  19
BRANCH  17  21
ATOM     21  O   UNL     1     100.565 132.777  68.100  0.00  0.00    -0.386 OA
ATOM     22  H   UNL     1      99.604 132.628  68.069  0.00  0.00    +0.210 HD
ENDBRANCH  17  21
BRANCH  18  23
ATOM     23  O   UNL     1     100.505 134.369  70.514  0.00  0.00    -0.387 OA
ATOM     24  H   UNL     1      99.979 133.981  71.241  0.00  0.00    +0.210 HD
ENDBRANCH  18  23
BRANCH  15  25
ATOM     25  C   UNL     1     104.408 130.245  69.829  0.00  0.00    +0.189 C 
BRANCH  25  26
ATOM     26  O   UNL     1     105.449 130.444  70.768  0.00  0.00    -0.391 OA
ATOM     27  H   UNL     1     106.166 130.907  70.287  0.00  0.00    +0.210 HD
ENDBRANCH  25  26
ENDBRANCH  15  25
ENDBRANCH  11  13
ENDBRANCH   6  11
BRANCH   3  28
ATOM     28  O   UNL     1      97.434 131.823  74.614  0.00  0.00    -0.342 OA
BRANCH  28  29
ATOM     29  C   UNL     1      96.448 131.284  73.683  0.00  0.00    +0.282 C 
ATOM     30  C   UNL     1      95.330 130.608  74.547  0.00  0.00    +0.201 C 
ATOM     31  C   UNL     1      93.933 130.513  73.885  0.00  0.00    +0.179 C 
ATOM     32  C   UNL     1      93.607 131.588  72.848  0.00  0.00    +0.177 C 
ATOM     33  C   UNL     1      94.849 131.784  71.988  0.00  0.00    +0.178 C 
ATOM     34  O   UNL     1      95.851 132.299  72.873  0.00  0.00    -0.341 OA
BRANCH  30  35
ATOM     35  O   UNL     1      95.729 129.267  74.904  0.00  0.00    -0.384 OA
ATOM     36  H   UNL     1      95.153 128.662  74.400  0.00  0.00    +0.210 HD
ENDBRANCH  30  35
BRANCH  31  37
ATOM     37  O   UNL     1      92.906 130.515  74.897  0.00  0.00    -0.386 OA
ATOM     38  H   UNL     1      92.209 129.884  74.633  0.00  0.00    +0.210 HD
ENDBRANCH  31  37
BRANCH  32  39
ATOM     39  O   UNL     1      92.472 131.198  72.061  0.00  0.00    -0.386 OA
ATOM     40  H   UNL     1      91.845 130.731  72.647  0.00  0.00    +0.210 HD
ENDBRANCH  32  39
BRANCH  33  41
ATOM     41  C   UNL     1      94.595 132.730  70.814  0.00  0.00    +0.190 C 
BRANCH  41  42
ATOM     42  O   UNL     1      93.900 132.096  69.742  0.00  0.00    -0.392 OA
ATOM     43  H   UNL     1      94.435 132.248  68.937  0.00  0.00    +0.210 HD
ENDBRANCH  41  42
ENDBRANCH  33  41
ENDBRANCH  28  29
ENDBRANCH   3  28
BRANCH   2  44
ATOM     44  C   UNL     1      99.760 132.604  76.681  0.00  0.00    +0.162 C 
BRANCH  44  45
ATOM     45  O   UNL     1      99.737 131.482  77.560  0.00  0.00    -0.395 OA
ATOM     46  H   UNL     1      99.960 130.690  77.049  0.00  0.00    +0.209 HD
ENDBRANCH  44  45
ENDBRANCH   2  44
TORSDOF 18
ENDMDL
MODEL 2
REMARK VINA RESULT:    -5.930      3.406      8.662
REMARK INTER + INTRA:         -12.121
REMARK INTER:                  -9.475
REMARK INTRA:                  -2.647
REMARK UNBOUND:                -1.857
REMARK  Name = 
REMARK  18 active torsions:
REMARK  status: ('A' for Active; 'I' for Inactive)
REMARK    1  A    between atoms: C_2  and  C_33
REMARK    2  A    between atoms: C_3  and  O_21
REMARK    3  A    between atoms: C_4  and  O_20
REMARK    4  A    between atoms: C_5  and  O_19
REMARK    5  A    between atoms: C_6  and  N_7
REMARK    6  A    between atoms: N_7  and  C_8
REMARK    7  A    between atoms: C_10  and  C_17
REMARK    8  A    between atoms: C_11  and  O_16
REMARK    9  A    between atoms: C_12  and  O_15
REMARK   10  A    between atoms: C_13  and  O_14
REMARK   11  A    between atoms: C_17  and  O_18
REMARK   12  A    between atoms: O_21  and  C_22
REMARK   13  A    between atoms: C_23  and  O_32
REMARK   14  A    between atoms: C_24  and  O_31
REMARK   15  A    between atoms: C_25  and  O_30
REMARK   16  A    between atoms: C_26  and  C_28
REMARK   17  A    between atoms: C_28  and  O_29
REMARK   18  A    between atoms: C_33  and  O_34
REMARK                            x       y       z     vdW  Elec       q    Type
REMARK                         _______ _______ _______ _____ _____    ______ ____
ROOT
ATOM      1  C   UNL     1     101.258 133.277  69.709  0.00  0.00    +0.029 C 
ATOM      2  C   UNL     1     102.728 133.746  69.766  0.00  0.00    +0.047 C 
ATOM      3  C   UNL     1     103.784 132.585  69.707  0.00  0.00    +0.158 C 
ATOM      4  C   UNL     1     103.302 131.287  70.412  0.00  0.00    +0.174 C 
ATOM      5  C   UNL     1     101.787 131.011  70.398  0.00  0.00    +0.162 C 
ATOM      6  C   UNL     1     100.937 132.239  70.769  0.00  0.00    +0.086 C 
ENDROOT
BRANCH   4   7
ATOM      7  O   UNL     1     103.974 130.173  69.781  0.00  0.00    -0.387 OA
ATOM      8  H   UNL     1     103.486 129.353  69.966  0.00  0.00    +0.210 HD
ENDBRANCH   4   7
BRANCH   5   9
ATOM      9  O   UNL     1     101.466 129.908  71.257  0.00  0.00    -0.388 OA
ATOM     10  H   UNL     1     100.637 129.516  70.932  0.00  0.00    +0.210 HD
ENDBRANCH   5   9
BRANCH   6  11
ATOM     11  N   UNL     1     101.186 132.703  72.157  0.00  0.00    -0.302 NA
ATOM     12  H   UNL     1     101.811 132.033  72.602  0.00  0.00    +0.123 HD
BRANCH  11  13
ATOM     13  C   UNL     1      99.974 132.859  72.998  0.00  0.00    +0.109 C 
ATOM     14  C   UNL     1      98.709 132.411  72.319  0.00  0.00    -0.002 C 
ATOM     15  C   UNL     1      98.123 131.220  72.552  0.00  0.00    -0.016 C 
ATOM     16  C   UNL     1      98.747 130.165  73.420  0.00  0.00    +0.173 C 
ATOM     17  C   UNL     1     100.081 130.563  74.110  0.00  0.00    +0.177 C 
ATOM     18  C   UNL     1     100.158 132.085  74.336  0.00  0.00    +0.166 C 
BRANCH  16  19
ATOM     19  O   UNL     1      98.944 129.006  72.605  0.00  0.00    -0.385 OA
ATOM     20  H   UNL     1      99.777 129.122  72.119  0.00  0.00    +0.210 HD
ENDBRANCH  16  19
BRANCH  17  21
ATOM     21  O   UNL     1     100.208 129.847  75.351  0.00  0.00    -0.386 OA
ATOM     22  H   UNL     1     100.008 130.460  76.079  0.00  0.00    +0.210 HD
ENDBRANCH  17  21
BRANCH  18  23
ATOM     23  O   UNL     1     101.405 132.448  74.942  0.00  0.00    -0.387 OA
ATOM     24  H   UNL     1     101.871 131.608  75.123  0.00  0.00    +0.210 HD
ENDBRANCH  18  23
BRANCH  15  25
ATOM     25  C   UNL     1      96.755 130.877  72.007  0.00  0.00    +0.189 C 
BRANCH  25  26
ATOM     26  O   UNL     1      96.714 131.137  70.615  0.00  0.00    -0.391 OA
ATOM     27  H   UNL     1      95.930 131.705  70.467  0.00  0.00    +0.210 HD
ENDBRANCH  25  26
ENDBRANCH  15  25
ENDBRANCH  11  13
ENDBRANCH   6  11
BRANCH   3  28
ATOM     28  O   UNL     1     105.000 133.081  70.350  0.00  0.00    -0.342 OA
BRANCH  28  29
ATOM     29  C   UNL     1     104.908 134.198  71.284  0.00  0.00    +0.282 C 
ATOM     30  C   UNL     1     105.138 133.609  72.718  0.00  0.00    +0.201 C 
ATOM     31  C   UNL     1     105.685 134.602  73.773  0.00  0.00    +0.179 C 
ATOM     32  C   UNL     1     106.530 135.757  73.234  0.00  0.00    +0.177 C 
ATOM     33  C   UNL     1     105.842 136.278  71.978  0.00  0.00    +0.178 C 
ATOM     34  O   UNL     1     105.896 135.200  71.036  0.00  0.00    -0.341 OA
BRANCH  30  35
ATOM     35  O   UNL     1     103.899 133.074  73.233  0.00  0.00    -0.384 OA
ATOM     36  H   UNL     1     103.722 133.540  74.072  0.00  0.00    +0.210 HD
ENDBRANCH  30  35
BRANCH  31  37
ATOM     37  O   UNL     1     106.447 133.894  74.771  0.00  0.00    -0.386 OA
ATOM     38  H   UNL     1     107.392 134.112  74.653  0.00  0.00    +0.210 HD
ENDBRANCH  31  37
BRANCH  32  39
ATOM     39  O   UNL     1     106.669 136.784  74.228  0.00  0.00    -0.386 OA
ATOM     40  H   UNL     1     105.923 137.406  74.124  0.00  0.00    +0.210 HD
ENDBRANCH  32  39
BRANCH  33  41
ATOM     41  C   UNL     1     106.515 137.538  71.432  0.00  0.00    +0.190 C 
BRANCH  41  42
ATOM     42  O   UNL     1     106.088 138.720  72.104  0.00  0.00    -0.392 OA
ATOM     43  H   UNL     1     105.110 138.708  72.091  0.00  0.00    +0.210 HD
ENDBRANCH  41  42
ENDBRANCH  33  41
ENDBRANCH  28  29
ENDBRANCH   3  28
BRANCH   2  44
ATOM     44  C   UNL     1     102.889 134.819  68.672  0.00  0.00    +0.162 C 
BRANCH  44  45
ATOM     45  O   UNL     1     104.092 134.646  67.928  0.00  0.00    -0.395 OA
ATOM     46  H   UNL     1     104.822 134.522  68.552  0.00  0.00    +0.209 HD
ENDBRANCH  44  45
ENDBRANCH   2  44
TORSDOF 18
ENDMDL
MODEL 3
REMARK VINA RESULT:    -5.897      1.572      2.288
REMARK INTER + INTRA:         -12.064
REMARK INTER:                  -9.961
REMARK INTRA:                  -2.103
REMARK UNBOUND:                -1.857
REMARK  Name = 
REMARK  18 active torsions:
REMARK  status: ('A' for Active; 'I' for Inactive)
REMARK    1  A    between atoms: C_2  and  C_33
REMARK    2  A    between atoms: C_3  and  O_21
REMARK    3  A    between atoms: C_4  and  O_20
REMARK    4  A    between atoms: C_5  and  O_19
REMARK    5  A    between atoms: C_6  and  N_7
REMARK    6  A    between atoms: N_7  and  C_8
REMARK    7  A    between atoms: C_10  and  C_17
REMARK    8  A    between atoms: C_11  and  O_16
REMARK    9  A    between atoms: C_12  and  O_15
REMARK   10  A    between atoms: C_13  and  O_14
REMARK   11  A    between atoms: C_17  and  O_18
REMARK   12  A    between atoms: O_21  and  C_22
REMARK   13  A    between atoms: C_23  and  O_32
REMARK   14  A    between atoms: C_24  and  O_31
REMARK   15  A    between atoms: C_25  and  O_30
REMARK   16  A    between atoms: C_26  and  C_28
REMARK   17  A    between atoms: C_28  and  O_29
REMARK   18  A    between atoms: C_33  and  O_34
REMARK                            x       y       z     vdW  Elec       q    Type
REMARK                         _______ _______ _______ _____ _____    ______ ____
ROOT
ATOM      1  C   UNL     1     100.854 131.573  74.856  0.00  0.00    +0.029 C 
ATOM      2  C   UNL     1      99.333 131.804  74.978  0.00  0.00    +0.047 C 
ATOM      3  C   UNL     1      98.451 130.731  74.247  0.00  0.00    +0.158 C 
ATOM      4  C   UNL     1      99.104 130.192  72.943  0.00  0.00    +0.174 C 
ATOM      5  C   UNL     1     100.643 130.144  72.906  0.00  0.00    +0.162 C 
ATOM      6  C   UNL     1     101.308 131.435  73.414  0.00  0.00    +0.086 C 
ENDROOT
BRANCH   4   7
ATOM      7  O   UNL     1      98.601 128.854  72.724  0.00  0.00    -0.387 OA
ATOM      8  H   UNL     1      98.045 128.591  73.477  0.00  0.00    +0.210 HD
ENDBRANCH   4   7
BRANCH   5   9
ATOM      9  O   UNL     1     101.108 129.834  71.585  0.00  0.00    -0.388 OA
ATOM     10  H   UNL     1     101.851 129.213  71.675  0.00  0.00    +0.210 HD
ENDBRANCH   5   9
BRANCH   6  11
ATOM     11  N   UNL     1     100.983 132.612  72.569  0.00  0.00    -0.302 NA
ATOM     12  H   UNL     1     100.369 132.297  71.820  0.00  0.00    +0.123 HD
BRANCH  11  13
ATOM     13  C   UNL     1     102.151 133.303  71.971  0.00  0.00    +0.109 C 
ATOM     14  C   UNL     1     103.398 132.462  71.942  0.00  0.00    -0.002 C 
ATOM     15  C   UNL     1     103.833 131.816  70.842  0.00  0.00    -0.016 C 
ATOM     16  C   UNL     1     103.045 131.769  69.565  0.00  0.00    +0.173 C 
ATOM     17  C   UNL     1     101.724 132.587  69.558  0.00  0.00    +0.177 C 
ATOM     18  C   UNL     1     101.802 133.779  70.530  0.00  0.00    +0.166 C 
BRANCH  16  19
ATOM     19  O   UNL     1     102.769 130.393  69.285  0.00  0.00    -0.385 OA
ATOM     20  H   UNL     1     102.077 130.360  68.605  0.00  0.00    +0.210 HD
ENDBRANCH  16  19
BRANCH  17  21
ATOM     21  O   UNL     1     101.443 133.028  68.218  0.00  0.00    -0.386 OA
ATOM     22  H   UNL     1     102.280 133.061  67.725  0.00  0.00    +0.210 HD
ENDBRANCH  17  21
BRANCH  18  23
ATOM     23  O   UNL     1     100.569 134.509  70.544  0.00  0.00    -0.387 OA
ATOM     24  H   UNL     1      99.877 133.872  70.275  0.00  0.00    +0.210 HD
ENDBRANCH  18  23
BRANCH  15  25
ATOM     25  C   UNL     1     105.185 131.141  70.788  0.00  0.00    +0.189 C 
BRANCH  25  26
ATOM     26  O   UNL     1     105.086 129.923  70.073  0.00  0.00    -0.391 OA
ATOM     27  H   UNL     1     105.106 130.162  69.123  0.00  0.00    +0.210 HD
ENDBRANCH  25  26
ENDBRANCH  15  25
ENDBRANCH  11  13
ENDBRANCH   6  11
BRANCH   3  28
ATOM     28  O   UNL     1      97.172 131.367  73.938  0.00  0.00    -0.342 OA
BRANCH  28  29
ATOM     29  C   UNL     1      97.078 132.259  72.787  0.00  0.00    +0.282 C 
ATOM     30  C   UNL     1      96.034 131.625  71.806  0.00  0.00    +0.201 C 
ATOM     31  C   UNL     1      95.317 132.615  70.855  0.00  0.00    +0.179 C 
ATOM     32  C   UNL     1      95.173 134.050  71.363  0.00  0.00    +0.177 C 
ATOM     33  C   UNL     1      96.494 134.438  72.016  0.00  0.00    +0.178 C 
ATOM     34  O   UNL     1      96.632 133.569  73.147  0.00  0.00    -0.341 OA
BRANCH  30  35
ATOM     35  O   UNL     1      96.677 130.627  70.983  0.00  0.00    -0.384 OA
ATOM     36  H   UNL     1      96.166 129.804  71.093  0.00  0.00    +0.210 HD
ENDBRANCH  30  35
BRANCH  31  37
ATOM     37  O   UNL     1      94.011 132.110  70.509  0.00  0.00    -0.386 OA
ATOM     38  H   UNL     1      93.435 132.866  70.285  0.00  0.00    +0.210 HD
ENDBRANCH  31  37
BRANCH  32  39
ATOM     39  O   UNL     1      94.834 134.934  70.284  0.00  0.00    -0.386 OA
ATOM     40  H   UNL     1      95.542 134.874  69.613  0.00  0.00    +0.210 HD
ENDBRANCH  32  39
BRANCH  33  41
ATOM     41  C   UNL     1      96.523 135.909  72.430  0.00  0.00    +0.190 C 
BRANCH  41  42
ATOM     42  O   UNL     1      96.845 136.775  71.344  0.00  0.00    -0.392 OA
ATOM     43  H   UNL     1      97.733 137.142  71.536  0.00  0.00    +0.210 HD
ENDBRANCH  41  42
ENDBRANCH  33  41
ENDBRANCH  28  29
ENDBRANCH   3  28
BRANCH   2  44
ATOM     44  C   UNL     1      99.033 131.968  76.481  0.00  0.00    +0.162 C 
BRANCH  44  45
ATOM     45  O   UNL     1      99.724 131.003  77.270  0.00  0.00    -0.395 OA
ATOM     46  H   UNL     1     100.504 130.707  76.776  0.00  0.00    +0.209 HD
ENDBRANCH  44  45
ENDBRANCH   2  44
TORSDOF 18
ENDMDL
MODEL 4
REMARK VINA RESULT:    -5.669      3.418      5.221
REMARK INTER + INTRA:         -11.669
REMARK INTER:                  -9.491
REMARK INTRA:                  -2.178
REMARK UNBOUND:                -1.857
REMARK  Name = 
REMARK  18 active torsions:
REMARK  status: ('A' for Active; 'I' for Inactive)
REMARK    1  A    between atoms: C_2  and  C_33
REMARK    2  A    between atoms: C_3  and  O_21
REMARK    3  A    between atoms: C_4  and  O_20
REMARK    4  A    between atoms: C_5  and  O_19
REMARK    5  A    between atoms: C_6  and  N_7
REMARK    6  A    between atoms: N_7  and  C_8
REMARK    7  A    between atoms: C_10  and  C_17
REMARK    8  A    between atoms: C_11  and  O_16
REMARK    9  A    between atoms: C_12  and  O_15
REMARK   10  A    between atoms: C_13  and  O_14
REMARK   11  A    between atoms: C_17  and  O_18
REMARK   12  A    between atoms: O_21  and  C_22
REMARK   13  A    between atoms: C_23  and  O_32
REMARK   14  A    between atoms: C_24  and  O_31
REMARK   15  A    between atoms: C_25  and  O_30
REMARK   16  A    between atoms: C_26  and  C_28
REMARK   17  A    between atoms: C_28  and  O_29
REMARK   18  A    between atoms: C_33  and  O_34
REMARK                            x       y       z     vdW  Elec       q    Type
REMARK                         _______ _______ _______ _____ _____    ______ ____
ROOT
ATOM      1  C   UNL     1     103.918 132.683  71.926  0.00  0.00    +0.029 C 
ATOM      2  C   UNL     1     102.573 132.950  72.635  0.00  0.00    +0.047 C 
ATOM      3  C   UNL     1     101.532 131.781  72.516  0.00  0.00    +0.158 C 
ATOM      4  C   UNL     1     101.615 131.026  71.160  0.00  0.00    +0.174 C 
ATOM      5  C   UNL     1     103.001 130.954  70.491  0.00  0.00    +0.162 C 
ATOM      6  C   UNL     1     103.740 132.302  70.467  0.00  0.00    +0.086 C 
ENDROOT
BRANCH   4   7
ATOM      7  O   UNL     1     101.145 129.677  71.383  0.00  0.00    -0.387 OA
ATOM      8  H   UNL     1     100.195 129.695  71.590  0.00  0.00    +0.210 HD
ENDBRANCH   4   7
BRANCH   5   9
ATOM      9  O   UNL     1     102.893 130.423  69.162  0.00  0.00    -0.388 OA
ATOM     10  H   UNL     1     102.719 129.469  69.242  0.00  0.00    +0.210 HD
ENDBRANCH   5   9
BRANCH   6  11
ATOM     11  N   UNL     1     103.027 133.327  69.663  0.00  0.00    -0.302 NA
ATOM     12  H   UNL     1     103.268 133.178  68.685  0.00  0.00    +0.123 HD
BRANCH  11  13
ATOM     13  C   UNL     1     103.331 134.734  70.021  0.00  0.00    +0.109 C 
ATOM     14  C   UNL     1     104.545 135.284  69.325  0.00  0.00    -0.002 C 
ATOM     15  C   UNL     1     104.481 136.085  68.242  0.00  0.00    -0.016 C 
ATOM     16  C   UNL     1     103.190 136.405  67.545  0.00  0.00    +0.173 C 
ATOM     17  C   UNL     1     101.908 135.822  68.201  0.00  0.00    +0.177 C 
ATOM     18  C   UNL     1     102.096 135.633  69.718  0.00  0.00    +0.166 C 
BRANCH  16  19
ATOM     19  O   UNL     1     103.307 135.936  66.198  0.00  0.00    -0.385 OA
ATOM     20  H   UNL     1     103.024 136.654  65.608  0.00  0.00    +0.210 HD
ENDBRANCH  16  19
BRANCH  17  21
ATOM     21  O   UNL     1     100.793 136.686  67.920  0.00  0.00    -0.386 OA
ATOM     22  H   UNL     1     101.104 137.607  67.955  0.00  0.00    +0.210 HD
ENDBRANCH  17  21
BRANCH  18  23
ATOM     23  O   UNL     1     100.922 135.064  70.311  0.00  0.00    -0.387 OA
ATOM     24  H   UNL     1     101.235 134.329  70.875  0.00  0.00    +0.210 HD
ENDBRANCH  18  23
BRANCH  15  25
ATOM     25  C   UNL     1     105.703 136.778  67.683  0.00  0.00    +0.189 C 
BRANCH  25  26
ATOM     26  O   UNL     1     105.316 137.690  66.671  0.00  0.00    -0.391 OA
ATOM     27  H   UNL     1     105.606 137.296  65.823  0.00  0.00    +0.210 HD
ENDBRANCH  25  26
ENDBRANCH  15  25
ENDBRANCH  11  13
ENDBRANCH   6  11
BRANCH   3  28
ATOM     28  O   UNL     1     100.205 132.374  72.676  0.00  0.00    -0.342 OA
BRANCH  28  29
ATOM     29  C   UNL     1      99.404 132.025  73.845  0.00  0.00    +0.282 C 
ATOM     30  C   UNL     1      99.879 130.607  74.313  0.00  0.00    +0.201 C 
ATOM     31  C   UNL     1      99.653 130.281  75.810  0.00  0.00    +0.179 C 
ATOM     32  C   UNL     1      99.637 131.478  76.762  0.00  0.00    +0.177 C 
ATOM     33  C   UNL     1      98.835 132.585  76.091  0.00  0.00    +0.178 C 
ATOM     34  O   UNL     1      99.582 132.946  74.923  0.00  0.00    -0.341 OA
BRANCH  30  35
ATOM     35  O   UNL     1      99.206 129.586  73.544  0.00  0.00    -0.384 OA
ATOM     36  H   UNL     1      99.217 129.885  72.615  0.00  0.00    +0.210 HD
ENDBRANCH  30  35
BRANCH  31  37
ATOM     37  O   UNL     1     100.642 129.337  76.265  0.00  0.00    -0.386 OA
ATOM     38  H   UNL     1     100.203 128.676  76.834  0.00  0.00    +0.210 HD
ENDBRANCH  31  37
BRANCH  32  39
ATOM     39  O   UNL     1      99.072 131.105  78.028  0.00  0.00    -0.386 OA
ATOM     40  H   UNL     1      98.131 131.370  78.027  0.00  0.00    +0.210 HD
ENDBRANCH  32  39
BRANCH  33  41
ATOM     41  C   UNL     1      98.619 133.784  77.015  0.00  0.00    +0.190 C 
BRANCH  41  42
ATOM     42  O   UNL     1      97.548 133.580  77.933  0.00  0.00    -0.392 OA
ATOM     43  H   UNL     1      97.480 134.399  78.465  0.00  0.00    +0.210 HD
ENDBRANCH  41  42
ENDBRANCH  33  41
ENDBRANCH  28  29
ENDBRANCH   3  28
BRANCH   2  44
ATOM     44  C   UNL     1     102.914 133.364  74.080  0.00  0.00    +0.162 C 
BRANCH  44  45
ATOM     45  O   UNL     1     101.943 134.254  74.623  0.00  0.00    -0.395 OA
ATOM     46  H   UNL     1     102.398 135.053  74.928  0.00  0.00    +0.209 HD
ENDBRANCH  44  45
ENDBRANCH   2  44
TORSDOF 18
ENDMDL
MODEL 5
REMARK VINA RESULT:    -5.613     11.734     15.664
REMARK INTER + INTRA:         -11.571
REMARK INTER:                  -8.579
REMARK INTRA:                  -2.992
REMARK UNBOUND:                -1.857
REMARK  Name = 
REMARK  18 active torsions:
REMARK  status: ('A' for Active; 'I' for Inactive)
REMARK    1  A    between atoms: C_2  and  C_33
REMARK    2  A    between atoms: C_3  and  O_21
REMARK    3  A    between atoms: C_4  and  O_20
REMARK    4  A    between atoms: C_5  and  O_19
REMARK    5  A    between atoms: C_6  and  N_7
REMARK    6  A    between atoms: N_7  and  C_8
REMARK    7  A    between atoms: C_10  and  C_17
REMARK    8  A    between atoms: C_11  and  O_16
REMARK    9  A    between atoms: C_12  and  O_15
REMARK   10  A    between atoms: C_13  and  O_14
REMARK   11  A    between atoms: C_17  and  O_18
REMARK   12  A    between atoms: O_21  and  C_22
REMARK   13  A    between atoms: C_23  and  O_32
REMARK   14  A    between atoms: C_24  and  O_31
REMARK   15  A    between atoms: C_25  and  O_30
REMARK   16  A    between atoms: C_26  and  C_28
REMARK   17  A    between atoms: C_28  and  O_29
REMARK   18  A    between atoms: C_33  and  O_34
REMARK                            x       y       z     vdW  Elec       q    Type
REMARK                         _______ _______ _______ _____ _____    ______ ____
ROOT
ATOM      1  C   UNL     1      98.818 139.651  62.534  0.00  0.00    +0.029 C 
ATOM      2  C   UNL     1      99.700 138.386  62.464  0.00  0.00    +0.047 C 
ATOM      3  C   UNL     1     100.979 138.532  61.566  0.00  0.00    +0.158 C 
ATOM      4  C   UNL     1     100.756 139.453  60.334  0.00  0.00    +0.174 C 
ATOM      5  C   UNL     1      99.741 140.600  60.499  0.00  0.00    +0.162 C 
ATOM      6  C   UNL     1      98.423 140.160  61.159  0.00  0.00    +0.086 C 
ENDROOT
BRANCH   4   7
ATOM      7  O   UNL     1     102.037 140.024  59.980  0.00  0.00    -0.387 OA
ATOM      8  H   UNL     1     102.354 139.621  59.154  0.00  0.00    +0.210 HD
ENDBRANCH   4   7
BRANCH   5   9
ATOM      9  O   UNL     1      99.479 141.229  59.237  0.00  0.00    -0.388 OA
ATOM     10  H   UNL     1      98.514 141.255  59.119  0.00  0.00    +0.210 HD
ENDBRANCH   5   9
BRANCH   6  11
ATOM     11  N   UNL     1      97.683 139.166  60.342  0.00  0.00    -0.302 NA
ATOM     12  H   UNL     1      97.324 139.645  59.518  0.00  0.00    +0.123 HD
BRANCH  11  13
ATOM     13  C   UNL     1      96.556 138.493  61.033  0.00  0.00    +0.109 C 
ATOM     14  C   UNL     1      95.242 139.209  60.879  0.00  0.00    -0.002 C 
ATOM     15  C   UNL     1      94.290 138.832  60.002  0.00  0.00    -0.016 C 
ATOM     16  C   UNL     1      94.500 137.734  58.999  0.00  0.00    +0.173 C 
ATOM     17  C   UNL     1      95.861 136.991  59.088  0.00  0.00    +0.177 C 
ATOM     18  C   UNL     1      96.423 137.028  60.522  0.00  0.00    +0.166 C 
BRANCH  16  19
ATOM     19  O   UNL     1      94.340 138.309  57.699  0.00  0.00    -0.385 OA
ATOM     20  H   UNL     1      94.928 139.079  57.640  0.00  0.00    +0.210 HD
ENDBRANCH  16  19
BRANCH  17  21
ATOM     21  O   UNL     1      95.698 135.638  58.630  0.00  0.00    -0.386 OA
ATOM     22  H   UNL     1      94.780 135.366  58.801  0.00  0.00    +0.210 HD
ENDBRANCH  17  21
BRANCH  18  23
ATOM     23  O   UNL     1      97.695 136.371  60.590  0.00  0.00    -0.387 OA
ATOM     24  H   UNL     1      97.954 136.384  61.533  0.00  0.00    +0.210 HD
ENDBRANCH  18  23
BRANCH  15  25
ATOM     25  C   UNL     1      92.908 139.446  60.004  0.00  0.00    +0.189 C 
BRANCH  25  26
ATOM     26  O   UNL     1      91.997 138.579  59.352  0.00  0.00    -0.391 OA
ATOM     27  H   UNL     1      92.447 137.711  59.285  0.00  0.00    +0.210 HD
ENDBRANCH  25  26
ENDBRANCH  15  25
ENDBRANCH  11  13
ENDBRANCH   6  11
BRANCH   3  28
ATOM     28  O   UNL     1     101.347 137.188  61.125  0.00  0.00    -0.342 OA
BRANCH  28  29
ATOM     29  C   UNL     1     101.263 136.855  59.707  0.00  0.00    +0.282 C 
ATOM     30  C   UNL     1     102.698 136.413  59.259  0.00  0.00    +0.201 C 
ATOM     31  C   UNL     1     102.758 135.464  58.036  0.00  0.00    +0.179 C 
ATOM     32  C   UNL     1     101.538 134.569  57.820  0.00  0.00    +0.177 C 
ATOM     33  C   UNL     1     100.298 135.419  58.067  0.00  0.00    +0.178 C 
ATOM     34  O   UNL     1     100.353 135.783  59.452  0.00  0.00    -0.341 OA
BRANCH  30  35
ATOM     35  O   UNL     1     103.492 137.577  58.940  0.00  0.00    -0.384 OA
ATOM     36  H   UNL     1     104.208 137.272  58.352  0.00  0.00    +0.210 HD
ENDBRANCH  30  35
BRANCH  31  37
ATOM     37  O   UNL     1     103.936 134.637  58.111  0.00  0.00    -0.386 OA
ATOM     38  H   UNL     1     103.766 133.911  58.741  0.00  0.00    +0.210 HD
ENDBRANCH  31  37
BRANCH  32  39
ATOM     39  O   UNL     1     101.548 134.017  56.495  0.00  0.00    -0.386 OA
ATOM     40  H   UNL     1     100.860 134.475  55.973  0.00  0.00    +0.210 HD
ENDBRANCH  32  39
BRANCH  33  41
ATOM     41  C   UNL     1      99.008 134.670  57.732  0.00  0.00    +0.190 C 
BRANCH  41  42
ATOM     42  O   UNL     1      98.259 134.326  58.894  0.00  0.00    -0.392 OA
ATOM     43  H   UNL     1      98.232 133.348  58.927  0.00  0.00    +0.210 HD
ENDBRANCH  41  42
ENDBRANCH  33  41
ENDBRANCH  28  29
ENDBRANCH   3  28
BRANCH   2  44
ATOM     44  C   UNL     1      99.980 137.966  63.921  0.00  0.00    +0.162 C 
BRANCH  44  45
ATOM     45  O   UNL     1     101.282 137.409  64.074  0.00  0.00    -0.395 OA
ATOM     46  H   UNL     1     101.934 138.078  63.816  0.00  0.00    +0.209 HD
ENDBRANCH  44  45
ENDBRANCH   2  44
TORSDOF 18
ENDMDL
MODEL 6
REMARK VINA RESULT:    -5.470     11.738     15.664
REMARK INTER + INTRA:         -11.325
REMARK INTER:                  -8.648
REMARK INTRA:                  -2.677
REMARK UNBOUND:                -1.857
REMARK  Name = 
REMARK  18 active torsions:
REMARK  status: ('A' for Active; 'I' for Inactive)
REMARK    1  A    between atoms: C_2  and  C_33
REMARK    2  A    between atoms: C_3  and  O_21
REMARK    3  A    between atoms: C_4  and  O_20
REMARK    4  A    between atoms: C_5  and  O_19
REMARK    5  A    between atoms: C_6  and  N_7
REMARK    6  A    between atoms: N_7  and  C_8
REMARK    7  A    between atoms: C_10  and  C_17
REMARK    8  A    between atoms: C_11  and  O_16
REMARK    9  A    between atoms: C_12  and  O_15
REMARK   10  A    between atoms: C_13  and  O_14
REMARK   11  A    between atoms: C_17  and  O_18
REMARK   12  A    between atoms: O_21  and  C_22
REMARK   13  A    between atoms: C_23  and  O_32
REMARK   14  A    between atoms: C_24  and  O_31
REMARK   15  A    between atoms: C_25  and  O_30
REMARK   16  A    between atoms: C_26  and  C_28
REMARK   17  A    between atoms: C_28  and  O_29
REMARK   18  A    between atoms: C_33  and  O_34
REMARK                            x       y       z     vdW  Elec       q    Type
REMARK                         _______ _______ _______ _____ _____    ______ ____
ROOT
ATOM      1  C   UNL     1      96.375 139.608  58.905  0.00  0.00    +0.029 C 
ATOM      2  C   UNL     1      96.983 138.772  57.758  0.00  0.00    +0.047 C 
ATOM      3  C   UNL     1      96.831 137.220  57.932  0.00  0.00    +0.158 C 
ATOM      4  C   UNL     1      96.906 136.763  59.416  0.00  0.00    +0.174 C 
ATOM      5  C   UNL     1      96.390 137.757  60.474  0.00  0.00    +0.162 C 
ATOM      6  C   UNL     1      96.901 139.193  60.267  0.00  0.00    +0.086 C 
ENDROOT
BRANCH   4   7
ATOM      7  O   UNL     1      96.148 135.537  59.534  0.00  0.00    -0.387 OA
ATOM      8  H   UNL     1      96.592 134.942  60.162  0.00  0.00    +0.210 HD
ENDBRANCH   4   7
BRANCH   5   9
ATOM      9  O   UNL     1      96.712 137.301  61.796  0.00  0.00    -0.388 OA
ATOM     10  H   UNL     1      95.899 137.349  62.328  0.00  0.00    +0.210 HD
ENDBRANCH   5   9
BRANCH   6  11
ATOM     11  N   UNL     1      98.376 139.294  60.396  0.00  0.00    -0.302 NA
ATOM     12  H   UNL     1      98.733 138.368  60.625  0.00  0.00    +0.123 HD
BRANCH  11  13
ATOM     13  C   UNL     1      98.857 140.257  61.417  0.00  0.00    +0.109 C 
ATOM     14  C   UNL     1      97.854 140.532  62.504  0.00  0.00    -0.002 C 
ATOM     15  C   UNL     1      97.905 139.961  63.724  0.00  0.00    -0.016 C 
ATOM     16  C   UNL     1      98.899 138.892  64.078  0.00  0.00    +0.173 C 
ATOM     17  C   UNL     1      99.930 138.538  62.972  0.00  0.00    +0.177 C 
ATOM     18  C   UNL     1     100.186 139.741  62.044  0.00  0.00    +0.166 C 
BRANCH  16  19
ATOM     19  O   UNL     1      98.156 137.726  64.445  0.00  0.00    -0.385 OA
ATOM     20  H   UNL     1      97.406 138.011  64.991  0.00  0.00    +0.210 HD
ENDBRANCH  16  19
BRANCH  17  21
ATOM     21  O   UNL     1     101.151 138.088  63.584  0.00  0.00    -0.386 OA
ATOM     22  H   UNL     1     101.895 138.362  63.021  0.00  0.00    +0.210 HD
ENDBRANCH  17  21
BRANCH  18  23
ATOM     23  O   UNL     1     101.113 139.398  61.006  0.00  0.00    -0.387 OA
ATOM     24  H   UNL     1     100.593 139.380  60.177  0.00  0.00    +0.210 HD
ENDBRANCH  18  23
BRANCH  15  25
ATOM     25  C   UNL     1      97.004 140.402  64.856  0.00  0.00    +0.189 C 
BRANCH  25  26
ATOM     26  O   UNL     1      95.952 139.468  65.023  0.00  0.00    -0.391 OA
ATOM     27  H   UNL     1      95.293 139.901  65.604  0.00  0.00    +0.210 HD
ENDBRANCH  25  26
ENDBRANCH  15  25
ENDBRANCH  11  13
ENDBRANCH   6  11
BRANCH   3  28
ATOM     28  O   UNL     1      97.907 136.596  57.164  0.00  0.00    -0.342 OA
BRANCH  28  29
ATOM     29  C   UNL     1      98.871 135.743  57.850  0.00  0.00    +0.282 C 
ATOM     30  C   UNL     1      99.218 134.571  56.869  0.00  0.00    +0.201 C 
ATOM     31  C   UNL     1     100.601 133.906  57.078  0.00  0.00    +0.179 C 
ATOM     32  C   UNL     1     101.688 134.793  57.685  0.00  0.00    +0.177 C 
ATOM     33  C   UNL     1     101.047 135.594  58.812  0.00  0.00    +0.178 C 
ATOM     34  O   UNL     1     100.076 136.437  58.179  0.00  0.00    -0.341 OA
BRANCH  30  35
ATOM     35  O   UNL     1      98.221 133.532  56.974  0.00  0.00    -0.384 OA
ATOM     36  H   UNL     1      97.396 133.899  56.602  0.00  0.00    +0.210 HD
ENDBRANCH  30  35
BRANCH  31  37
ATOM     37  O   UNL     1     101.084 133.366  55.831  0.00  0.00    -0.386 OA
ATOM     38  H   UNL     1     102.059 133.340  55.861  0.00  0.00    +0.210 HD
ENDBRANCH  31  37
BRANCH  32  39
ATOM     39  O   UNL     1     102.783 133.994  58.158  0.00  0.00    -0.386 OA
ATOM     40  H   UNL     1     103.448 133.943  57.445  0.00  0.00    +0.210 HD
ENDBRANCH  32  39
BRANCH  33  41
ATOM     41  C   UNL     1     102.074 136.410  59.598  0.00  0.00    +0.190 C 
BRANCH  41  42
ATOM     42  O   UNL     1     101.786 136.451  60.993  0.00  0.00    -0.392 OA
ATOM     43  H   UNL     1     100.810 136.435  61.075  0.00  0.00    +0.210 HD
ENDBRANCH  41  42
ENDBRANCH  33  41
ENDBRANCH  28  29
ENDBRANCH   3  28
BRANCH   2  44
ATOM     44  C   UNL     1      96.394 139.333  56.448  0.00  0.00    +0.162 C 
BRANCH  44  45
ATOM     45  O   UNL     1      96.161 138.308  55.486  0.00  0.00    -0.395 OA
ATOM     46  H   UNL     1      96.632 138.540  54.672  0.00  0.00    +0.209 HD
ENDBRANCH  44  45
ENDBRANCH   2  44
TORSDOF 18
ENDMDL
MODEL 7
REMARK VINA RESULT:    -5.469     12.980     16.882
REMARK INTER + INTRA:         -11.323
REMARK INTER:                  -8.766
REMARK INTRA:                  -2.557
REMARK UNBOUND:                -1.857
REMARK  Name = 
REMARK  18 active torsions:
REMARK  status: ('A' for Active; 'I' for Inactive)
REMARK    1  A    between atoms: C_2  and  C_33
REMARK    2  A    between atoms: C_3  and  O_21
REMARK    3  A    between atoms: C_4  and  O_20
REMARK    4  A    between atoms: C_5  and  O_19
REMARK    5  A    between atoms: C_6  and  N_7
REMARK    6  A    between atoms: N_7  and  C_8
REMARK    7  A    between atoms: C_10  and  C_17
REMARK    8  A    between atoms: C_11  and  O_16
REMARK    9  A    between atoms: C_12  and  O_15
REMARK   10  A    between atoms: C_13  and  O_14
REMARK   11  A    between atoms: C_17  and  O_18
REMARK   12  A    between atoms: O_21  and  C_22
REMARK   13  A    between atoms: C_23  and  O_32
REMARK   14  A    between atoms: C_24  and  O_31
REMARK   15  A    between atoms: C_25  and  O_30
REMARK   16  A    between atoms: C_26  and  C_28
REMARK   17  A    between atoms: C_28  and  O_29
REMARK   18  A    between atoms: C_33  and  O_34
REMARK                            x       y       z     vdW  Elec       q    Type
REMARK                         _______ _______ _______ _____ _____    ______ ____
ROOT
ATOM      1  C   UNL     1      99.851 138.271  60.735  0.00  0.00    +0.029 C 
ATOM      2  C   UNL     1     100.450 137.024  60.052  0.00  0.00    +0.047 C 
ATOM      3  C   UNL     1     101.247 137.324  58.733  0.00  0.00    +0.158 C 
ATOM      4  C   UNL     1     100.653 138.506  57.918  0.00  0.00    +0.174 C 
ATOM      5  C   UNL     1      99.957 139.622  58.722  0.00  0.00    +0.162 C 
ATOM      6  C   UNL     1      98.988 139.092  59.793  0.00  0.00    +0.086 C 
ENDROOT
BRANCH   4   7
ATOM      7  O   UNL     1     101.732 139.097  57.158  0.00  0.00    -0.387 OA
ATOM      8  H   UNL     1     102.581 138.875  57.576  0.00  0.00    +0.210 HD
ENDBRANCH   4   7
BRANCH   5   9
ATOM      9  O   UNL     1      99.277 140.529  57.843  0.00  0.00    -0.388 OA
ATOM     10  H   UNL     1      99.199 141.381  58.306  0.00  0.00    +0.210 HD
ENDBRANCH   5   9
BRANCH   6  11
ATOM     11  N   UNL     1      97.853 138.335  59.208  0.00  0.00    -0.302 NA
ATOM     12  H   UNL     1      97.289 138.989  58.668  0.00  0.00    +0.123 HD
BRANCH  11  13
ATOM     13  C   UNL     1      96.980 137.646  60.189  0.00  0.00    +0.109 C 
ATOM     14  C   UNL     1      95.898 138.525  60.753  0.00  0.00    -0.002 C 
ATOM     15  C   UNL     1      94.619 138.494  60.327  0.00  0.00    -0.016 C 
ATOM     16  C   UNL     1      94.174 137.666  59.156  0.00  0.00    +0.173 C 
ATOM     17  C   UNL     1      95.267 136.773  58.508  0.00  0.00    +0.177 C 
ATOM     18  C   UNL     1      96.347 136.382  59.535  0.00  0.00    +0.166 C 
BRANCH  16  19
ATOM     19  O   UNL     1      93.635 138.564  58.181  0.00  0.00    -0.385 OA
ATOM     20  H   UNL     1      92.863 138.136  57.777  0.00  0.00    +0.210 HD
ENDBRANCH  16  19
BRANCH  17  21
ATOM     21  O   UNL     1      94.653 135.606  57.935  0.00  0.00    -0.386 OA
ATOM     22  H   UNL     1      94.817 135.614  56.976  0.00  0.00    +0.210 HD
ENDBRANCH  17  21
BRANCH  18  23
ATOM     23  O   UNL     1      97.370 135.586  58.924  0.00  0.00    -0.387 OA
ATOM     24  H   UNL     1      97.443 134.777  59.468  0.00  0.00    +0.210 HD
ENDBRANCH  18  23
BRANCH  15  25
ATOM     25  C   UNL     1      93.516 139.243  61.041  0.00  0.00    +0.189 C 
BRANCH  25  26
ATOM     26  O   UNL     1      92.289 138.553  60.886  0.00  0.00    -0.391 OA
ATOM     27  H   UNL     1      92.420 137.927  60.145  0.00  0.00    +0.210 HD
ENDBRANCH  25  26
ENDBRANCH  15  25
ENDBRANCH  11  13
ENDBRANCH   6  11
BRANCH   3  28
ATOM     28  O   UNL     1     101.220 136.102  57.931  0.00  0.00    -0.342 OA
BRANCH  28  29
ATOM     29  C   UNL     1     100.589 136.126  56.615  0.00  0.00    +0.282 C 
ATOM     30  C   UNL     1     101.393 135.133  55.709  0.00  0.00    +0.201 C 
ATOM     31  C   UNL     1     100.611 134.526  54.517  0.00  0.00    +0.179 C 
ATOM     32  C   UNL     1      99.099 134.400  54.702  0.00  0.00    +0.177 C 
ATOM     33  C   UNL     1      98.611 135.684  55.362  0.00  0.00    +0.178 C 
ATOM     34  O   UNL     1      99.224 135.706  56.657  0.00  0.00    -0.341 OA
BRANCH  30  35
ATOM     35  O   UNL     1     102.556 135.797  55.166  0.00  0.00    -0.384 OA
ATOM     36  H   UNL     1     102.467 135.764  54.195  0.00  0.00    +0.210 HD
ENDBRANCH  30  35
BRANCH  31  37
ATOM     37  O   UNL     1     101.149 133.231  54.182  0.00  0.00    -0.386 OA
ATOM     38  H   UNL     1     101.947 133.358  53.635  0.00  0.00    +0.210 HD
ENDBRANCH  31  37
BRANCH  32  39
ATOM     39  O   UNL     1      98.455 134.175  53.439  0.00  0.00    -0.386 OA
ATOM     40  H   UNL     1      97.594 134.636  53.453  0.00  0.00    +0.210 HD
ENDBRANCH  32  39
BRANCH  33  41
ATOM     41  C   UNL     1      97.086 135.739  55.460  0.00  0.00    +0.190 C 
BRANCH  41  42
ATOM     42  O   UNL     1      96.533 134.565  56.050  0.00  0.00    -0.392 OA
ATOM     43  H   UNL     1      95.574 134.582  55.855  0.00  0.00    +0.210 HD
ENDBRANCH  41  42
ENDBRANCH  33  41
ENDBRANCH  28  29
ENDBRANCH   3  28
BRANCH   2  44
ATOM     44  C   UNL     1     101.254 136.276  61.134  0.00  0.00    +0.162 C 
BRANCH  44  45
ATOM     45  O   UNL     1     101.152 136.909  62.407  0.00  0.00    -0.395 OA
ATOM     46  H   UNL     1     100.234 136.839  62.709  0.00  0.00    +0.209 HD
ENDBRANCH  44  45
ENDBRANCH   2  44
TORSDOF 18
ENDMDL
MODEL 8
REMARK VINA RESULT:    -5.437     11.444     16.011
REMARK INTER + INTRA:         -11.268
REMARK INTER:                  -8.417
REMARK INTRA:                  -2.851
REMARK UNBOUND:                -1.857
REMARK  Name = 
REMARK  18 active torsions:
REMARK  status: ('A' for Active; 'I' for Inactive)
REMARK    1  A    between atoms: C_2  and  C_33
REMARK    2  A    between atoms: C_3  and  O_21
REMARK    3  A    between atoms: C_4  and  O_20
REMARK    4  A    between atoms: C_5  and  O_19
REMARK    5  A    between atoms: C_6  and  N_7
REMARK    6  A    between atoms: N_7  and  C_8
REMARK    7  A    between atoms: C_10  and  C_17
REMARK    8  A    between atoms: C_11  and  O_16
REMARK    9  A    between atoms: C_12  and  O_15
REMARK   10  A    between atoms: C_13  and  O_14
REMARK   11  A    between atoms: C_17  and  O_18
REMARK   12  A    between atoms: O_21  and  C_22
REMARK   13  A    between atoms: C_23  and  O_32
REMARK   14  A    between atoms: C_24  and  O_31
REMARK   15  A    between atoms: C_25  and  O_30
REMARK   16  A    between atoms: C_26  and  C_28
REMARK   17  A    between atoms: C_28  and  O_29
REMARK   18  A    between atoms: C_33  and  O_34
REMARK                            x       y       z     vdW  Elec       q    Type
REMARK                         _______ _______ _______ _____ _____    ______ ____
ROOT
ATOM      1  C   UNL     1      96.225 138.594  59.543  0.00  0.00    +0.029 C 
ATOM      2  C   UNL     1      97.225 138.807  58.386  0.00  0.00    +0.047 C 
ATOM      3  C   UNL     1      97.504 137.526  57.524  0.00  0.00    +0.158 C 
ATOM      4  C   UNL     1      97.469 136.212  58.355  0.00  0.00    +0.174 C 
ATOM      5  C   UNL     1      96.524 136.186  59.570  0.00  0.00    +0.162 C 
ATOM      6  C   UNL     1      96.623 137.443  60.451  0.00  0.00    +0.086 C 
ENDROOT
BRANCH   4   7
ATOM      7  O   UNL     1      97.092 135.141  57.460  0.00  0.00    -0.387 OA
ATOM      8  H   UNL     1      97.524 134.317  57.742  0.00  0.00    +0.210 HD
ENDBRANCH   4   7
BRANCH   5   9
ATOM      9  O   UNL     1      96.748 135.009  60.360  0.00  0.00    -0.388 OA
ATOM     10  H   UNL     1      95.893 134.746  60.742  0.00  0.00    +0.210 HD
ENDBRANCH   5   9
BRANCH   6  11
ATOM     11  N   UNL     1      97.965 137.602  61.066  0.00  0.00    -0.302 NA
ATOM     12  H   UNL     1      98.038 136.932  61.829  0.00  0.00    +0.123 HD
BRANCH  11  13
ATOM     13  C   UNL     1      98.264 138.957  61.588  0.00  0.00    +0.109 C 
ATOM     14  C   UNL     1      97.691 139.217  62.954  0.00  0.00    -0.002 C 
ATOM     15  C   UNL     1      98.416 139.151  64.089  0.00  0.00    -0.016 C 
ATOM     16  C   UNL     1      99.843 138.685  64.113  0.00  0.00    +0.173 C 
ATOM     17  C   UNL     1     100.470 138.361  62.729  0.00  0.00    +0.177 C 
ATOM     18  C   UNL     1      99.805 139.185  61.610  0.00  0.00    +0.166 C 
BRANCH  16  19
ATOM     19  O   UNL     1      99.900 137.532  64.958  0.00  0.00    -0.385 OA
ATOM     20  H   UNL     1      99.198 136.923  64.677  0.00  0.00    +0.210 HD
ENDBRANCH  16  19
BRANCH  17  21
ATOM     21  O   UNL     1     101.887 138.603  62.778  0.00  0.00    -0.386 OA
ATOM     22  H   UNL     1     102.087 139.365  62.208  0.00  0.00    +0.210 HD
ENDBRANCH  17  21
BRANCH  18  23
ATOM     23  O   UNL     1     100.364 138.857  60.332  0.00  0.00    -0.387 OA
ATOM     24  H   UNL     1     100.479 139.707  59.863  0.00  0.00    +0.210 HD
ENDBRANCH  18  23
BRANCH  15  25
ATOM     25  C   UNL     1      97.865 139.605  65.422  0.00  0.00    +0.189 C 
BRANCH  25  26
ATOM     26  O   UNL     1      97.306 138.501  66.111  0.00  0.00    -0.391 OA
ATOM     27  H   UNL     1      97.825 138.404  66.936  0.00  0.00    +0.210 HD
ENDBRANCH  25  26
ENDBRANCH  15  25
ENDBRANCH  11  13
ENDBRANCH   6  11
BRANCH   3  28
ATOM     28  O   UNL     1      98.823 137.698  56.918  0.00  0.00    -0.342 OA
BRANCH  28  29
ATOM     29  C   UNL     1      99.900 136.781  57.280  0.00  0.00    +0.282 C 
ATOM     30  C   UNL     1     100.308 136.022  55.972  0.00  0.00    +0.201 C 
ATOM     31  C   UNL     1     101.757 135.477  55.934  0.00  0.00    +0.179 C 
ATOM     32  C   UNL     1     102.783 136.240  56.772  0.00  0.00    +0.177 C 
ATOM     33  C   UNL     1     102.126 136.573  58.106  0.00  0.00    +0.178 C 
ATOM     34  O   UNL     1     101.048 137.462  57.791  0.00  0.00    -0.341 OA
BRANCH  30  35
ATOM     35  O   UNL     1      99.421 134.901  55.760  0.00  0.00    -0.384 OA
ATOM     36  H   UNL     1      99.001 135.040  54.890  0.00  0.00    +0.210 HD
ENDBRANCH  30  35
BRANCH  31  37
ATOM     37  O   UNL     1     102.225 135.412  54.572  0.00  0.00    -0.386 OA
ATOM     38  H   UNL     1     103.200 135.373  54.580  0.00  0.00    +0.210 HD
ENDBRANCH  31  37
BRANCH  32  39
ATOM     39  O   UNL     1     103.972 135.456  56.947  0.00  0.00    -0.386 OA
ATOM     40  H   UNL     1     104.422 135.394  56.081  0.00  0.00    +0.210 HD
ENDBRANCH  32  39
BRANCH  33  41
ATOM     41  C   UNL     1     103.108 137.206  59.092  0.00  0.00    +0.190 C 
BRANCH  41  42
ATOM     42  O   UNL     1     102.691 137.061  60.447  0.00  0.00    -0.392 OA
ATOM     43  H   UNL     1     101.957 137.695  60.580  0.00  0.00    +0.210 HD
ENDBRANCH  41  42
ENDBRANCH  33  41
ENDBRANCH  28  29
ENDBRANCH   3  28
BRANCH   2  44
ATOM     44  C   UNL     1      96.717 140.023  57.587  0.00  0.00    +0.162 C 
BRANCH  44  45
ATOM     45  O   UNL     1      97.432 140.195  56.366  0.00  0.00    -0.395 OA
ATOM     46  H   UNL     1      98.345 140.440  56.579  0.00  0.00    +0.209 HD
ENDBRANCH  44  45
ENDBRANCH   2  44
TORSDOF 18
ENDMDL
MODEL 9
REMARK VINA RESULT:    -5.378      2.855      9.063
REMARK INTER + INTRA:         -11.165
REMARK INTER:                  -9.344
REMARK INTRA:                  -1.821
REMARK UNBOUND:                -1.857
REMARK  Name = 
REMARK  18 active torsions:
REMARK  status: ('A' for Active; 'I' for Inactive)
REMARK    1  A    between atoms: C_2  and  C_33
REMARK    2  A    between atoms: C_3  and  O_21
REMARK    3  A    between atoms: C_4  and  O_20
REMARK    4  A    between atoms: C_5  and  O_19
REMARK    5  A    between atoms: C_6  and  N_7
REMARK    6  A    between atoms: N_7  and  C_8
REMARK    7  A    between atoms: C_10  and  C_17
REMARK    8  A    between atoms: C_11  and  O_16
REMARK    9  A    between atoms: C_12  and  O_15
REMARK   10  A    between atoms: C_13  and  O_14
REMARK   11  A    between atoms: C_17  and  O_18
REMARK   12  A    between atoms: O_21  and  C_22
REMARK   13  A    between atoms: C_23  and  O_32
REMARK   14  A    between atoms: C_24  and  O_31
REMARK   15  A    between atoms: C_25  and  O_30
REMARK   16  A    between atoms: C_26  and  C_28
REMARK   17  A    between atoms: C_28  and  O_29
REMARK   18  A    between atoms: C_33  and  O_34
REMARK                            x       y       z     vdW  Elec       q    Type
REMARK                         _______ _______ _______ _____ _____    ______ ____
ROOT
ATOM      1  C   UNL     1      93.826 134.070  72.398  0.00  0.00    +0.029 C 
ATOM      2  C   UNL     1      95.203 133.539  72.854  0.00  0.00    +0.047 C 
ATOM      3  C   UNL     1      96.075 132.922  71.704  0.00  0.00    +0.158 C 
ATOM      4  C   UNL     1      95.230 132.200  70.618  0.00  0.00    +0.174 C 
ATOM      5  C   UNL     1      93.815 132.752  70.360  0.00  0.00    +0.162 C 
ATOM      6  C   UNL     1      93.020 133.025  71.648  0.00  0.00    +0.086 C 
ENDROOT
BRANCH   4   7
ATOM      7  O   UNL     1      95.973 132.255  69.379  0.00  0.00    -0.387 OA
ATOM      8  H   UNL     1      95.439 131.870  68.664  0.00  0.00    +0.210 HD
ENDBRANCH   4   7
BRANCH   5   9
ATOM      9  O   UNL     1      93.078 131.873  69.499  0.00  0.00    -0.388 OA
ATOM     10  H   UNL     1      92.148 131.898  69.782  0.00  0.00    +0.210 HD
ENDBRANCH   5   9
BRANCH   6  11
ATOM     11  N   UNL     1      92.766 131.789  72.431  0.00  0.00    -0.302 NA
ATOM     12  H   UNL     1      92.354 131.102  71.803  0.00  0.00    +0.123 HD
BRANCH  11  13
ATOM     13  C   UNL     1      91.876 131.957  73.605  0.00  0.00    +0.109 C 
ATOM     14  C   UNL     1      90.431 131.660  73.313  0.00  0.00    -0.002 C 
ATOM     15  C   UNL     1      89.831 130.497  73.638  0.00  0.00    -0.016 C 
ATOM     16  C   UNL     1      90.582 129.330  74.212  0.00  0.00    +0.173 C 
ATOM     17  C   UNL     1      92.091 129.572  74.491  0.00  0.00    +0.177 C 
ATOM     18  C   UNL     1      92.373 131.059  74.777  0.00  0.00    +0.166 C 
BRANCH  16  19
ATOM     19  O   UNL     1      90.422 128.234  73.306  0.00  0.00    -0.385 OA
ATOM     20  H   UNL     1      90.064 128.586  72.474  0.00  0.00    +0.210 HD
ENDBRANCH  16  19
BRANCH  17  21
ATOM     21  O   UNL     1      92.512 128.745  75.590  0.00  0.00    -0.386 OA
ATOM     22  H   UNL     1      92.983 127.974  75.230  0.00  0.00    +0.210 HD
ENDBRANCH  17  21
BRANCH  18  23
ATOM     23  O   UNL     1      93.772 131.280  75.000  0.00  0.00    -0.387 OA
ATOM     24  H   UNL     1      94.162 130.397  75.156  0.00  0.00    +0.210 HD
ENDBRANCH  18  23
BRANCH  15  25
ATOM     25  C   UNL     1      88.337 130.300  73.510  0.00  0.00    +0.189 C 
BRANCH  25  26
ATOM     26  O   UNL     1      87.948 129.124  74.196  0.00  0.00    -0.391 OA
ATOM     27  H   UNL     1      88.748 128.561  74.249  0.00  0.00    +0.210 HD
ENDBRANCH  25  26
ENDBRANCH  15  25
ENDBRANCH  11  13
ENDBRANCH   6  11
BRANCH   3  28
ATOM     28  O   UNL     1      96.997 131.976  72.329  0.00  0.00    -0.342 OA
BRANCH  28  29
ATOM     29  C   UNL     1      98.429 132.258  72.313  0.00  0.00    +0.282 C 
ATOM     30  C   UNL     1      99.049 131.528  73.552  0.00  0.00    +0.201 C 
ATOM     31  C   UNL     1     100.549 131.160  73.436  0.00  0.00    +0.179 C 
ATOM     32  C   UNL     1     101.074 130.925  72.019  0.00  0.00    +0.177 C 
ATOM     33  C   UNL     1     100.481 132.008  71.127  0.00  0.00    +0.178 C 
ATOM     34  O   UNL     1      99.067 131.775  71.129  0.00  0.00    -0.341 OA
BRANCH  30  35
ATOM     35  O   UNL     1      98.898 132.349  74.732  0.00  0.00    -0.384 OA
ATOM     36  H   UNL     1      99.554 133.068  74.656  0.00  0.00    +0.210 HD
ENDBRANCH  30  35
BRANCH  31  37
ATOM     37  O   UNL     1     100.837 129.997  74.238  0.00  0.00    -0.386 OA
ATOM     38  H   UNL     1     100.016 129.718  74.686  0.00  0.00    +0.210 HD
ENDBRANCH  31  37
BRANCH  32  39
ATOM     39  O   UNL     1     102.510 130.952  72.004  0.00  0.00    -0.386 OA
ATOM     40  H   UNL     1     102.793 131.404  71.185  0.00  0.00    +0.210 HD
ENDBRANCH  32  39
BRANCH  33  41
ATOM     41  C   UNL     1     101.056 131.968  69.710  0.00  0.00    +0.190 C 
BRANCH  41  42
ATOM     42  O   UNL     1     101.250 130.638  69.237  0.00  0.00    -0.392 OA
ATOM     43  H   UNL     1     100.449 130.135  69.489  0.00  0.00    +0.210 HD
ENDBRANCH  41  42
ENDBRANCH  33  41
ENDBRANCH  28  29
ENDBRANCH   3  28
BRANCH   2  44
ATOM     44  C   UNL     1      95.879 134.686  73.631  0.00  0.00    +0.162 C 
BRANCH  44  45
ATOM     45  O   UNL     1      97.001 135.215  72.930  0.00  0.00    -0.395 OA
ATOM     46  H   UNL     1      97.420 135.888  73.488  0.00  0.00    +0.209 HD
ENDBRANCH  44  45
ENDBRANCH   2  44
TORSDOF 18
ENDMDL
