MODEL 1
REMARK VINA RESULT:     0.000      0.000      0.000
REMARK INTER + INTRA:          -3.407
REMARK INTER:                   0.000
REMARK INTRA:                  -3.407
REMARK UNBOUND:                -3.407
REMARK  Name = 
REMARK  16 active torsions:
REMARK  status: ('A' for Active; 'I' for Inactive)
REMARK    1  A    between atoms: C_1  and  C_2
REMARK    2  A    between atoms: C_2  and  C_3
REMARK    3  A    between atoms: C_2  and  CA_12
REMARK    4  A    between atoms: C_3  and  C_4
REMARK    5  A    between atoms: C_3  and  O_11
REMARK    6  A    between atoms: C_7  and  O_10
REMARK    7  A    between atoms: CA_12  and  C_13
REMARK    8  A    between atoms: CA_12  and  N_35
REMARK    9  A    between atoms: N_15  and  CA_16
REMARK   10  A    between atoms: CA_16  and  C_17
REMARK   11  A    between atoms: CA_16  and  C_32
REMARK   12  A    between atoms: C_18  and  O_31
REMARK   13  A    between atoms: C_19  and  O_30
REMARK   14  A    between atoms: C_20  and  N_22
REMARK   15  A    between atoms: CA_24  and  C_28
REMARK   16  A    between atoms: C_32  and  OXT_34
REMARK                            x       y       z     vdW  Elec       q    Type
REMARK                         _______ _______ _______ _____ _____    ______ ____
ROOT
ATOM      1  CA  UNL     1       2.265   2.524   1.748  0.00  0.00    +0.213 C 
ENDROOT
BRANCH   1   2
ATOM      2  C   UNL     1       1.765   2.296   0.310  0.00  0.00    +0.183 C 
ATOM      3  C   UNL     1       0.496   3.056  -0.090  0.00  0.00    +0.178 C 
ATOM      4  C   UNL     1      -0.237   2.101  -1.042  0.00  0.00    +0.195 C 
ATOM      5  C   UNL     1       0.726   0.914  -1.208  0.00  0.00    +0.255 C 
ATOM      6  O   UNL     1       1.534   0.920  -0.011  0.00  0.00    -0.345 OA
BRANCH   5   7
ATOM      7  N   UNL     1       1.583   0.950  -2.378  0.00  0.00    -0.270 N 
ATOM      8  C   UNL     1       2.412   1.967  -2.806  0.00  0.00    +0.122 A 
ATOM      9  CA  UNL     1       2.975   1.612  -3.959  0.00  0.00    +0.099 A 
ATOM     10  N   UNL     1       2.538   0.358  -4.304  0.00  0.00    -0.304 N 
ATOM     11  C   UNL     1       1.639  -0.098  -3.323  0.00  0.00    +0.329 A 
ATOM     12  O   UNL     1       1.046  -1.159  -3.332  0.00  0.00    -0.246 OA
ATOM     13  H   UNL     1       2.769  -0.174  -5.128  0.00  0.00    +0.171 HD
BRANCH   9  14
ATOM     14  C   UNL     1       3.904   2.439  -4.751  0.00  0.00    +0.278 C 
ATOM     15  O   UNL     1       4.676   3.235  -4.236  0.00  0.00    -0.294 OA
ENDBRANCH   9  14
ENDBRANCH   5   7
BRANCH   4  16
ATOM     16  O   UNL     1      -0.659   2.716  -2.256  0.00  0.00    -0.385 OA
ATOM     17  H   UNL     1      -0.272   3.615  -2.248  0.00  0.00    +0.210 HD
ENDBRANCH   4  16
BRANCH   3  18
ATOM     18  O   UNL     1       0.767   4.296  -0.750  0.00  0.00    -0.386 OA
ATOM     19  H   UNL     1       1.728   4.488  -0.731  0.00  0.00    +0.210 HD
ENDBRANCH   3  18
ENDBRANCH   1   2
BRANCH   1  22
ATOM     20  C   UNL     1       3.933   4.352   1.496  0.00  0.00    +0.231 C 
ATOM     21  O   UNL     1       3.064   5.164   1.203  0.00  0.00    -0.274 OA
ATOM     22  N   UNL     1       3.634   3.054   1.873  0.00  0.00    -0.299 N 
ATOM     23  H   UNL     1       4.401   2.398   1.979  0.00  0.00    +0.150 HD
BRANCH  20  24
ATOM     24  CA  UNL     1       5.434   4.736   1.587  0.00  0.00    +0.143 C 
BRANCH  24  25
ATOM     25  N   UNL     1       5.992   4.081   2.792  0.00  0.00    -0.320 NA
ATOM     26  H1  UNL     1       6.928   4.411   2.998  0.00  0.00    +0.119 HD
ATOM     27  H2  UNL     1       6.070   3.077   2.596  0.00  0.00    +0.119 HD
ENDBRANCH  24  25
BRANCH  24  29
ATOM     28  C   UNL     1       7.248   5.499   0.002  0.00  0.00    +0.012 C 
ATOM     29  C   UNL     1       6.243   4.373   0.316  0.00  0.00    +0.046 C 
BRANCH  29  30
ATOM     30  C   UNL     1       6.968   3.010   0.489  0.00  0.00    +0.168 C 
BRANCH  30  31
ATOM     31  C   UNL     1       6.395   1.931  -0.423  0.00  0.00    +0.070 A 
ATOM     32  N   UNL     1       5.379   1.181   0.090  0.00  0.00    -0.254 NA
ATOM     33  C   UNL     1       4.898   0.178  -0.683  0.00  0.00    +0.156 A 
ATOM     34  C   UNL     1       5.379  -0.111  -1.949  0.00  0.00    +0.135 A 
ATOM     35  C   UNL     1       6.401   0.671  -2.465  0.00  0.00    +0.049 A 
ATOM     36  C   UNL     1       6.920   1.712  -1.695  0.00  0.00    +0.029 A 
BRANCH  34  37
ATOM     37  O   UNL     1       4.896  -1.127  -2.713  0.00  0.00    -0.505 OA
ATOM     38  H   UNL     1       4.288  -1.668  -2.182  0.00  0.00    +0.292 HD
ENDBRANCH  34  37
ENDBRANCH  30  31
BRANCH  30  39
ATOM     39  O   UNL     1       8.364   3.180   0.202  0.00  0.00    -0.385 OA
ATOM     40  H   UNL     1       8.584   2.456  -0.422  0.00  0.00    +0.210 HD
ENDBRANCH  30  39
ENDBRANCH  29  30
ENDBRANCH  24  29
ENDBRANCH  20  24
ENDBRANCH   1  22
BRANCH   1  41
ATOM     41  C   UNL     1       2.152   1.202   2.515  0.00  0.00    +0.328 C 
ATOM     42  O   UNL     1       1.220   0.906   3.248  0.00  0.00    -0.249 OA
BRANCH  41  43
ATOM     43  OXT UNL     1       3.214   0.382   2.323  0.00  0.00    -0.479 OA
ATOM     44  HXT UNL     1       3.078  -0.181   1.534  0.00  0.00    +0.295 HD
ENDBRANCH  41  43
ENDBRANCH   1  41
TORSDOF 15
ENDMDL
MODEL 2
REMARK VINA RESULT:     0.000      4.024      6.205
REMARK INTER + INTRA:          -3.407
REMARK INTER:                   0.000
REMARK INTRA:                  -3.407
REMARK UNBOUND:                -3.407
REMARK  Name = 
REMARK  16 active torsions:
REMARK  status: ('A' for Active; 'I' for Inactive)
REMARK    1  A    between atoms: C_1  and  C_2
REMARK    2  A    between atoms: C_2  and  C_3
REMARK    3  A    between atoms: C_2  and  CA_12
REMARK    4  A    between atoms: C_3  and  C_4
REMARK    5  A    between atoms: C_3  and  O_11
REMARK    6  A    between atoms: C_7  and  O_10
REMARK    7  A    between atoms: CA_12  and  C_13
REMARK    8  A    between atoms: CA_12  and  N_35
REMARK    9  A    between atoms: N_15  and  CA_16
REMARK   10  A    between atoms: CA_16  and  C_17
REMARK   11  A    between atoms: CA_16  and  C_32
REMARK   12  A    between atoms: C_18  and  O_31
REMARK   13  A    between atoms: C_19  and  O_30
REMARK   14  A    between atoms: C_20  and  N_22
REMARK   15  A    between atoms: CA_24  and  C_28
REMARK   16  A    between atoms: C_32  and  OXT_34
REMARK                            x       y       z     vdW  Elec       q    Type
REMARK                         _______ _______ _______ _____ _____    ______ ____
ROOT
ATOM      1  CA  UNL     1       4.234  -0.041   0.294  0.00  0.00    +0.213 C 
ENDROOT
BRANCH   1   2
ATOM      2  C   UNL     1       5.551  -0.087  -0.502  0.00  0.00    +0.183 C 
ATOM      3  C   UNL     1       5.729   0.992  -1.575  0.00  0.00    +0.178 C 
ATOM      4  C   UNL     1       6.510   0.291  -2.695  0.00  0.00    +0.195 C 
ATOM      5  C   UNL     1       6.825  -1.103  -2.128  0.00  0.00    +0.255 C 
ATOM      6  O   UNL     1       5.797  -1.344  -1.144  0.00  0.00    -0.345 OA
BRANCH   5   7
ATOM      7  N   UNL     1       8.132  -1.260  -1.520  0.00  0.00    -0.270 N 
ATOM      8  C   UNL     1       8.729  -0.481  -0.549  0.00  0.00    +0.122 A 
ATOM      9  CA  UNL     1       9.957  -0.942  -0.318  0.00  0.00    +0.099 A 
ATOM     10  N   UNL     1      10.186  -2.032  -1.119  0.00  0.00    -0.304 N 
ATOM     11  C   UNL     1       9.046  -2.263  -1.910  0.00  0.00    +0.329 A 
ATOM     12  O   UNL     1       8.921  -3.135  -2.748  0.00  0.00    -0.246 OA
ATOM     13  H   UNL     1      11.026  -2.585  -1.188  0.00  0.00    +0.171 HD
BRANCH   9  14
ATOM     14  C   UNL     1      10.925  -0.364   0.633  0.00  0.00    +0.278 C 
ATOM     15  O   UNL     1      10.582   0.157   1.683  0.00  0.00    -0.294 OA
ENDBRANCH   9  14
ENDBRANCH   5   7
BRANCH   4  16
ATOM     16  O   UNL     1       7.639   1.030  -3.153  0.00  0.00    -0.385 OA
ATOM     17  H   UNL     1       8.393   0.407  -3.132  0.00  0.00    +0.210 HD
ENDBRANCH   4  16
BRANCH   3  18
ATOM     18  O   UNL     1       6.453   2.134  -1.110  0.00  0.00    -0.386 OA
ATOM     19  H   UNL     1       6.491   2.820  -1.809  0.00  0.00    +0.210 HD
ENDBRANCH   3  18
ENDBRANCH   1   2
BRANCH   1  22
ATOM     20  C   UNL     1       4.854   1.276   2.312  0.00  0.00    +0.231 C 
ATOM     21  O   UNL     1       5.026   2.292   1.649  0.00  0.00    -0.274 OA
ATOM     22  N   UNL     1       4.373   0.103   1.754  0.00  0.00    -0.299 N 
ATOM     23  H   UNL     1       4.375  -0.733   2.327  0.00  0.00    +0.150 HD
BRANCH  20  24
ATOM     24  CA  UNL     1       5.042   1.245   3.852  0.00  0.00    +0.143 C 
BRANCH  24  25
ATOM     25  N   UNL     1       3.936   0.444   4.422  0.00  0.00    -0.320 NA
ATOM     26  H1  UNL     1       3.030   0.796   4.133  0.00  0.00    +0.119 HD
ATOM     27  H2  UNL     1       3.976   0.537   5.443  0.00  0.00    +0.119 HD
ENDBRANCH  24  25
BRANCH  24  29
ATOM     28  C   UNL     1       6.940   1.515   5.498  0.00  0.00    +0.012 C 
ATOM     29  C   UNL     1       6.425   0.702   4.294  0.00  0.00    +0.046 C 
BRANCH  29  30
ATOM     30  C   UNL     1       6.344  -0.812   4.634  0.00  0.00    +0.168 C 
BRANCH  30  31
ATOM     31  C   UNL     1       7.117  -1.669   3.638  0.00  0.00    +0.070 A 
ATOM     32  N   UNL     1       6.415  -2.135   2.566  0.00  0.00    -0.254 NA
ATOM     33  C   UNL     1       7.068  -2.948   1.703  0.00  0.00    +0.156 A 
ATOM     34  C   UNL     1       8.395  -3.317   1.855  0.00  0.00    +0.135 A 
ATOM     35  C   UNL     1       9.101  -2.824   2.940  0.00  0.00    +0.049 A 
ATOM     36  C   UNL     1       8.458  -1.984   3.849  0.00  0.00    +0.029 A 
BRANCH  34  37
ATOM     37  O   UNL     1       9.039  -4.144   0.987  0.00  0.00    -0.505 OA
ATOM     38  H   UNL     1       8.519  -4.956   0.869  0.00  0.00    +0.292 HD
ENDBRANCH  34  37
ENDBRANCH  30  31
BRANCH  30  39
ATOM     39  O   UNL     1       6.872  -1.026   5.951  0.00  0.00    -0.385 OA
ATOM     40  H   UNL     1       6.265  -1.676   6.365  0.00  0.00    +0.210 HD
ENDBRANCH  30  39
ENDBRANCH  29  30
ENDBRANCH  24  29
ENDBRANCH  20  24
ENDBRANCH   1  22
BRANCH   1  41
ATOM     41  C   UNL     1       3.432  -1.307  -0.024  0.00  0.00    +0.328 C 
ATOM     42  O   UNL     1       2.533  -1.366  -0.850  0.00  0.00    -0.249 OA
BRANCH  41  43
ATOM     43  OXT UNL     1       3.800  -2.374   0.726  0.00  0.00    -0.479 OA
ATOM     44  HXT UNL     1       3.231  -3.147   0.530  0.00  0.00    +0.295 HD
ENDBRANCH  41  43
ENDBRANCH   1  41
TORSDOF 15
ENDMDL
MODEL 3
REMARK VINA RESULT:     0.001      2.851      5.963
REMARK INTER + INTRA:          -3.406
REMARK INTER:                   0.000
REMARK INTRA:                  -3.406
REMARK UNBOUND:                -3.407
REMARK  Name = 
REMARK  16 active torsions:
REMARK  status: ('A' for Active; 'I' for Inactive)
REMARK    1  A    between atoms: C_1  and  C_2
REMARK    2  A    between atoms: C_2  and  C_3
REMARK    3  A    between atoms: C_2  and  CA_12
REMARK    4  A    between atoms: C_3  and  C_4
REMARK    5  A    between atoms: C_3  and  O_11
REMARK    6  A    between atoms: C_7  and  O_10
REMARK    7  A    between atoms: CA_12  and  C_13
REMARK    8  A    between atoms: CA_12  and  N_35
REMARK    9  A    between atoms: N_15  and  CA_16
REMARK   10  A    between atoms: CA_16  and  C_17
REMARK   11  A    between atoms: CA_16  and  C_32
REMARK   12  A    between atoms: C_18  and  O_31
REMARK   13  A    between atoms: C_19  and  O_30
REMARK   14  A    between atoms: C_20  and  N_22
REMARK   15  A    between atoms: CA_24  and  C_28
REMARK   16  A    between atoms: C_32  and  OXT_34
REMARK                            x       y       z     vdW  Elec       q    Type
REMARK                         _______ _______ _______ _____ _____    ______ ____
ROOT
ATOM      1  CA  UNL     1       2.888   1.618  -0.555  0.00  0.00    +0.213 C 
ENDROOT
BRANCH   1   2
ATOM      2  C   UNL     1       1.706   2.387  -1.171  0.00  0.00    +0.183 C 
ATOM      3  C   UNL     1       0.713   1.555  -1.990  0.00  0.00    +0.178 C 
ATOM      4  C   UNL     1       0.261   2.498  -3.114  0.00  0.00    +0.195 C 
ATOM      5  C   UNL     1       0.938   3.838  -2.784  0.00  0.00    +0.255 C 
ATOM      6  O   UNL     1       2.100   3.486  -2.002  0.00  0.00    -0.345 OA
BRANCH   5   7
ATOM      7  N   UNL     1       0.130   4.796  -2.056  0.00  0.00    -0.270 N 
ATOM      8  C   UNL     1      -0.576   4.613  -0.884  0.00  0.00    +0.122 A 
ATOM      9  CA  UNL     1      -1.231   5.734  -0.591  0.00  0.00    +0.099 A 
ATOM     10  N   UNL     1      -0.962   6.675  -1.553  0.00  0.00    -0.304 N 
ATOM     11  C   UNL     1      -0.103   6.112  -2.513  0.00  0.00    +0.329 A 
ATOM     12  O   UNL     1       0.312   6.664  -3.515  0.00  0.00    -0.246 OA
ATOM     13  H   UNL     1      -1.324   7.614  -1.620  0.00  0.00    +0.171 HD
BRANCH   9  14
ATOM     14  C   UNL     1      -2.119   5.932   0.570  0.00  0.00    +0.278 C 
ATOM     15  O   UNL     1      -1.942   5.360   1.636  0.00  0.00    -0.294 OA
ENDBRANCH   9  14
ENDBRANCH   5   7
BRANCH   4  16
ATOM     16  O   UNL     1      -1.153   2.556  -3.276  0.00  0.00    -0.385 OA
ATOM     17  H   UNL     1      -1.530   2.050  -2.527  0.00  0.00    +0.210 HD
ENDBRANCH   4  16
BRANCH   3  18
ATOM     18  O   UNL     1      -0.416   1.118  -1.230  0.00  0.00    -0.386 OA
ATOM     19  H   UNL     1      -0.995   1.879  -1.013  0.00  0.00    +0.210 HD
ENDBRANCH   3  18
ENDBRANCH   1   2
BRANCH   1  22
ATOM     20  C   UNL     1       2.088   1.068   1.736  0.00  0.00    +0.231 C 
ATOM     21  O   UNL     1       1.243   0.294   1.302  0.00  0.00    -0.274 OA
ATOM     22  N   UNL     1       3.007   1.696   0.912  0.00  0.00    -0.299 N 
ATOM     23  H   UNL     1       3.594   2.418   1.314  0.00  0.00    +0.150 HD
BRANCH  20  24
ATOM     24  CA  UNL     1       2.282   1.324   3.254  0.00  0.00    +0.143 C 
BRANCH  24  25
ATOM     25  N   UNL     1       3.738   1.354   3.521  0.00  0.00    -0.320 NA
ATOM     26  H1  UNL     1       3.957   1.914   4.338  0.00  0.00    +0.119 HD
ATOM     27  H2  UNL     1       4.194   1.807   2.722  0.00  0.00    +0.119 HD
ENDBRANCH  24  25
BRANCH  24  29
ATOM     28  C   UNL     1       0.955   2.352   5.142  0.00  0.00    +0.012 C 
ATOM     29  C   UNL     1       1.584   2.612   3.759  0.00  0.00    +0.046 C 
BRANCH  29  30
ATOM     30  C   UNL     1       2.583   3.800   3.814  0.00  0.00    +0.168 C 
BRANCH  30  31
ATOM     31  C   UNL     1       2.260   4.874   2.780  0.00  0.00    +0.070 A 
ATOM     32  N   UNL     1       2.859   4.743   1.563  0.00  0.00    -0.254 NA
ATOM     33  C   UNL     1       2.633   5.719   0.653  0.00  0.00    +0.156 A 
ATOM     34  C   UNL     1       1.831   6.822   0.896  0.00  0.00    +0.135 A 
ATOM     35  C   UNL     1       1.215   6.934   2.133  0.00  0.00    +0.049 A 
ATOM     36  C   UNL     1       1.427   5.946   3.094  0.00  0.00    +0.029 A 
BRANCH  34  37
ATOM     37  O   UNL     1       1.618   7.803  -0.022  0.00  0.00    -0.505 OA
ATOM     38  H   UNL     1       0.749   7.674  -0.436  0.00  0.00    +0.292 HD
ENDBRANCH  34  37
ENDBRANCH  30  31
BRANCH  30  39
ATOM     39  O   UNL     1       2.551   4.381   5.125  0.00  0.00    -0.385 OA
ATOM     40  H   UNL     1       3.453   4.246   5.485  0.00  0.00    +0.210 HD
ENDBRANCH  30  39
ENDBRANCH  29  30
ENDBRANCH  24  29
ENDBRANCH  20  24
ENDBRANCH   1  22
BRANCH   1  41
ATOM     41  C   UNL     1       4.183   2.118  -1.203  0.00  0.00    +0.328 C 
ATOM     42  O   UNL     1       4.748   1.564  -2.135  0.00  0.00    -0.249 OA
BRANCH  41  43
ATOM     43  OXT UNL     1       4.670   3.242  -0.624  0.00  0.00    -0.479 OA
ATOM     44  HXT UNL     1       4.363   4.039  -1.103  0.00  0.00    +0.295 HD
ENDBRANCH  41  43
ENDBRANCH   1  41
TORSDOF 15
ENDMDL
MODEL 4
REMARK VINA RESULT:     0.001      7.867      9.410
REMARK INTER + INTRA:          -3.405
REMARK INTER:                   0.000
REMARK INTRA:                  -3.405
REMARK UNBOUND:                -3.407
REMARK  Name = 
REMARK  16 active torsions:
REMARK  status: ('A' for Active; 'I' for Inactive)
REMARK    1  A    between atoms: C_1  and  C_2
REMARK    2  A    between atoms: C_2  and  C_3
REMARK    3  A    between atoms: C_2  and  CA_12
REMARK    4  A    between atoms: C_3  and  C_4
REMARK    5  A    between atoms: C_3  and  O_11
REMARK    6  A    between atoms: C_7  and  O_10
REMARK    7  A    between atoms: CA_12  and  C_13
REMARK    8  A    between atoms: CA_12  and  N_35
REMARK    9  A    between atoms: N_15  and  CA_16
REMARK   10  A    between atoms: CA_16  and  C_17
REMARK   11  A    between atoms: CA_16  and  C_32
REMARK   12  A    between atoms: C_18  and  O_31
REMARK   13  A    between atoms: C_19  and  O_30
REMARK   14  A    between atoms: C_20  and  N_22
REMARK   15  A    between atoms: CA_24  and  C_28
REMARK   16  A    between atoms: C_32  and  OXT_34
REMARK                            x       y       z     vdW  Elec       q    Type
REMARK                         _______ _______ _______ _____ _____    ______ ____
ROOT
ATOM      1  CA  UNL     1       2.635  -8.064   4.368  0.00  0.00    +0.213 C 
ENDROOT
BRANCH   1   2
ATOM      2  C   UNL     1       1.757  -8.016   3.105  0.00  0.00    +0.183 C 
ATOM      3  C   UNL     1       0.248  -8.168   3.326  0.00  0.00    +0.178 C 
ATOM      4  C   UNL     1      -0.243  -8.938   2.093  0.00  0.00    +0.195 C 
ATOM      5  C   UNL     1       1.003  -9.064   1.200  0.00  0.00    +0.255 C 
ATOM      6  O   UNL     1       2.121  -8.978   2.109  0.00  0.00    -0.345 OA
BRANCH   5   7
ATOM      7  N   UNL     1       1.141  -8.066   0.157  0.00  0.00    -0.270 N 
ATOM      8  C   UNL     1       1.091  -6.691   0.269  0.00  0.00    +0.122 A 
ATOM      9  CA  UNL     1       1.205  -6.152  -0.943  0.00  0.00    +0.099 A 
ATOM     10  N   UNL     1       1.343  -7.155  -1.868  0.00  0.00    -0.304 N 
ATOM     11  C   UNL     1       1.298  -8.395  -1.207  0.00  0.00    +0.329 A 
ATOM     12  O   UNL     1       1.364  -9.490  -1.732  0.00  0.00    -0.246 OA
ATOM     13  H   UNL     1       1.431  -7.068  -2.869  0.00  0.00    +0.171 HD
BRANCH   9  14
ATOM     14  C   UNL     1       1.170  -4.710  -1.247  0.00  0.00    +0.278 C 
ATOM     15  O   UNL     1       1.583  -3.865  -0.467  0.00  0.00    -0.294 OA
ENDBRANCH   9  14
ENDBRANCH   5   7
BRANCH   4  16
ATOM     16  O   UNL     1      -1.380  -8.350   1.468  0.00  0.00    -0.385 OA
ATOM     17  H   UNL     1      -2.157  -8.674   1.967  0.00  0.00    +0.210 HD
ENDBRANCH   4  16
BRANCH   3  18
ATOM     18  O   UNL     1      -0.435  -6.915   3.429  0.00  0.00    -0.386 OA
ATOM     19  H   UNL     1       0.064  -6.303   4.009  0.00  0.00    +0.210 HD
ENDBRANCH   3  18
ENDBRANCH   1   2
BRANCH   1  22
ATOM     20  C   UNL     1       2.899  -5.667   4.980  0.00  0.00    +0.231 C 
ATOM     21  O   UNL     1       1.714  -5.567   5.276  0.00  0.00    -0.274 OA
ATOM     22  N   UNL     1       3.469  -6.875   4.614  0.00  0.00    -0.299 N 
ATOM     23  H   UNL     1       4.419  -6.866   4.260  0.00  0.00    +0.150 HD
BRANCH  20  24
ATOM     24  CA  UNL     1       3.891  -4.480   5.103  0.00  0.00    +0.143 C 
BRANCH  24  25
ATOM     25  N   UNL     1       5.147  -5.005   5.684  0.00  0.00    -0.320 NA
ATOM     26  H1  UNL     1       4.982  -5.827   6.254  0.00  0.00    +0.119 HD
ATOM     27  H2  UNL     1       5.528  -4.286   6.309  0.00  0.00    +0.119 HD
ENDBRANCH  24  25
BRANCH  24  29
ATOM     28  C   UNL     1       4.224  -2.227   4.010  0.00  0.00    +0.012 C 
ATOM     29  C   UNL     1       4.146  -3.746   3.762  0.00  0.00    +0.046 C 
BRANCH  29  30
ATOM     30  C   UNL     1       5.441  -4.269   3.081  0.00  0.00    +0.168 C 
BRANCH  30  31
ATOM     31  C   UNL     1       5.147  -5.034   1.795  0.00  0.00    +0.070 A 
ATOM     32  N   UNL     1       4.962  -6.378   1.919  0.00  0.00    -0.254 NA
ATOM     33  C   UNL     1       4.761  -7.084   0.782  0.00  0.00    +0.156 A 
ATOM     34  C   UNL     1       4.731  -6.511  -0.479  0.00  0.00    +0.135 A 
ATOM     35  C   UNL     1       4.906  -5.140  -0.589  0.00  0.00    +0.049 A 
ATOM     36  C   UNL     1       5.115  -4.384   0.563  0.00  0.00    +0.029 A 
BRANCH  34  37
ATOM     37  O   UNL     1       4.540  -7.230  -1.618  0.00  0.00    -0.505 OA
ATOM     38  H   UNL     1       4.498  -8.176  -1.398  0.00  0.00    +0.292 HD
ENDBRANCH  34  37
ENDBRANCH  30  31
BRANCH  30  39
ATOM     39  O   UNL     1       6.297  -3.157   2.785  0.00  0.00    -0.385 OA
ATOM     40  H   UNL     1       7.069  -3.264   3.381  0.00  0.00    +0.210 HD
ENDBRANCH  30  39
ENDBRANCH  29  30
ENDBRANCH  24  29
ENDBRANCH  20  24
ENDBRANCH   1  22
BRANCH   1  41
ATOM     41  C   UNL     1       3.524  -9.310   4.293  0.00  0.00    +0.328 C 
ATOM     42  O   UNL     1       3.271 -10.374   4.840  0.00  0.00    -0.249 OA
BRANCH  41  43
ATOM     43  OXT UNL     1       4.653  -9.116   3.570  0.00  0.00    -0.479 OA
ATOM     44  HXT UNL     1       4.488  -8.495   2.831  0.00  0.00    +0.295 HD
ENDBRANCH  41  43
ENDBRANCH   1  41
TORSDOF 15
ENDMDL
MODEL 5
REMARK VINA RESULT:     0.001      6.589      9.634
REMARK INTER + INTRA:          -3.405
REMARK INTER:                   0.000
REMARK INTRA:                  -3.405
REMARK UNBOUND:                -3.407
REMARK  Name = 
REMARK  16 active torsions:
REMARK  status: ('A' for Active; 'I' for Inactive)
REMARK    1  A    between atoms: C_1  and  C_2
REMARK    2  A    between atoms: C_2  and  C_3
REMARK    3  A    between atoms: C_2  and  CA_12
REMARK    4  A    between atoms: C_3  and  C_4
REMARK    5  A    between atoms: C_3  and  O_11
REMARK    6  A    between atoms: C_7  and  O_10
REMARK    7  A    between atoms: CA_12  and  C_13
REMARK    8  A    between atoms: CA_12  and  N_35
REMARK    9  A    between atoms: N_15  and  CA_16
REMARK   10  A    between atoms: CA_16  and  C_17
REMARK   11  A    between atoms: CA_16  and  C_32
REMARK   12  A    between atoms: C_18  and  O_31
REMARK   13  A    between atoms: C_19  and  O_30
REMARK   14  A    between atoms: C_20  and  N_22
REMARK   15  A    between atoms: CA_24  and  C_28
REMARK   16  A    between atoms: C_32  and  OXT_34
REMARK                            x       y       z     vdW  Elec       q    Type
REMARK                         _______ _______ _______ _____ _____    ______ ____
ROOT
ATOM      1  CA  UNL     1      -6.571   0.567  -2.813  0.00  0.00    +0.213 C 
ENDROOT
BRANCH   1   2
ATOM      2  C   UNL     1      -6.068  -0.834  -2.422  0.00  0.00    +0.183 C 
ATOM      3  C   UNL     1      -6.099  -1.894  -3.528  0.00  0.00    +0.178 C 
ATOM      4  C   UNL     1      -6.430  -3.201  -2.795  0.00  0.00    +0.195 C 
ATOM      5  C   UNL     1      -6.447  -2.812  -1.308  0.00  0.00    +0.255 C 
ATOM      6  O   UNL     1      -6.750  -1.400  -1.297  0.00  0.00    -0.345 OA
BRANCH   5   7
ATOM      7  N   UNL     1      -5.220  -3.055  -0.574  0.00  0.00    -0.270 N 
ATOM      8  C   UNL     1      -3.935  -2.662  -0.890  0.00  0.00    +0.122 A 
ATOM      9  CA  UNL     1      -3.096  -3.146   0.023  0.00  0.00    +0.099 A 
ATOM     10  N   UNL     1      -3.809  -3.854   0.958  0.00  0.00    -0.304 N 
ATOM     11  C   UNL     1      -5.171  -3.828   0.608  0.00  0.00    +0.329 A 
ATOM     12  O   UNL     1      -6.075  -4.378   1.205  0.00  0.00    -0.246 OA
ATOM     13  H   UNL     1      -3.456  -4.353   1.759  0.00  0.00    +0.171 HD
BRANCH   9  14
ATOM     14  C   UNL     1      -1.632  -2.968   0.024  0.00  0.00    +0.278 C 
ATOM     15  O   UNL     1      -1.093  -1.967  -0.425  0.00  0.00    -0.294 OA
ENDBRANCH   9  14
ENDBRANCH   5   7
BRANCH   4  16
ATOM     16  O   UNL     1      -5.562  -4.280  -3.131  0.00  0.00    -0.385 OA
ATOM     17  H   UNL     1      -6.039  -5.097  -2.876  0.00  0.00    +0.210 HD
ENDBRANCH   4  16
BRANCH   3  18
ATOM     18  O   UNL     1      -4.854  -2.020  -4.221  0.00  0.00    -0.386 OA
ATOM     19  H   UNL     1      -4.922  -2.705  -4.920  0.00  0.00    +0.210 HD
ENDBRANCH   3  18
ENDBRANCH   1   2
BRANCH   1  22
ATOM     20  C   UNL     1      -4.488   1.768  -3.454  0.00  0.00    +0.231 C 
ATOM     21  O   UNL     1      -4.337   1.066  -4.446  0.00  0.00    -0.274 OA
ATOM     22  N   UNL     1      -5.603   1.666  -2.640  0.00  0.00    -0.299 N 
ATOM     23  H   UNL     1      -5.608   2.183  -1.768  0.00  0.00    +0.150 HD
BRANCH  20  24
ATOM     24  CA  UNL     1      -3.508   2.914  -3.087  0.00  0.00    +0.143 C 
BRANCH  24  25
ATOM     25  N   UNL     1      -4.317   4.074  -2.651  0.00  0.00    -0.320 NA
ATOM     26  H1  UNL     1      -3.795   4.941  -2.718  0.00  0.00    +0.119 HD
ATOM     27  H2  UNL     1      -4.544   3.943  -1.659  0.00  0.00    +0.119 HD
ENDBRANCH  24  25
BRANCH  24  29
ATOM     28  C   UNL     1      -1.093   3.124  -2.371  0.00  0.00    +0.012 C 
ATOM     29  C   UNL     1      -2.463   2.513  -2.014  0.00  0.00    +0.046 C 
BRANCH  29  30
ATOM     30  C   UNL     1      -2.922   2.959  -0.598  0.00  0.00    +0.168 C 
BRANCH  30  31
ATOM     31  C   UNL     1      -3.257   1.772   0.299  0.00  0.00    +0.070 A 
ATOM     32  N   UNL     1      -4.551   1.345   0.281  0.00  0.00    -0.254 NA
ATOM     33  C   UNL     1      -4.882   0.333   1.116  0.00  0.00    +0.156 A 
ATOM     34  C   UNL     1      -3.980  -0.280   1.970  0.00  0.00    +0.135 A 
ATOM     35  C   UNL     1      -2.663   0.154   1.967  0.00  0.00    +0.049 A 
ATOM     36  C   UNL     1      -2.289   1.195   1.119  0.00  0.00    +0.029 A 
BRANCH  34  37
ATOM     37  O   UNL     1      -4.325  -1.290   2.814  0.00  0.00    -0.505 OA
ATOM     38  H   UNL     1      -4.881  -0.937   3.528  0.00  0.00    +0.292 HD
ENDBRANCH  34  37
ENDBRANCH  30  31
BRANCH  30  39
ATOM     39  O   UNL     1      -1.879   3.733   0.011  0.00  0.00    -0.385 OA
ATOM     40  H   UNL     1      -1.770   4.515  -0.570  0.00  0.00    +0.210 HD
ENDBRANCH  30  39
ENDBRANCH  29  30
ENDBRANCH  24  29
ENDBRANCH  20  24
ENDBRANCH   1  22
BRANCH   1  41
ATOM     41  C   UNL     1      -7.841   0.868  -2.011  0.00  0.00    +0.328 C 
ATOM     42  O   UNL     1      -8.978   0.714  -2.433  0.00  0.00    -0.249 OA
BRANCH  41  43
ATOM     43  OXT UNL     1      -7.586   1.354  -0.772  0.00  0.00    -0.479 OA
ATOM     44  HXT UNL     1      -7.437   2.322  -0.804  0.00  0.00    +0.295 HD
ENDBRANCH  41  43
ENDBRANCH   1  41
TORSDOF 15
ENDMDL
MODEL 6
REMARK VINA RESULT:     0.001      5.029      8.872
REMARK INTER + INTRA:          -3.405
REMARK INTER:                   0.000
REMARK INTRA:                  -3.405
REMARK UNBOUND:                -3.407
REMARK  Name = 
REMARK  16 active torsions:
REMARK  status: ('A' for Active; 'I' for Inactive)
REMARK    1  A    between atoms: C_1  and  C_2
REMARK    2  A    between atoms: C_2  and  C_3
REMARK    3  A    between atoms: C_2  and  CA_12
REMARK    4  A    between atoms: C_3  and  C_4
REMARK    5  A    between atoms: C_3  and  O_11
REMARK    6  A    between atoms: C_7  and  O_10
REMARK    7  A    between atoms: CA_12  and  C_13
REMARK    8  A    between atoms: CA_12  and  N_35
REMARK    9  A    between atoms: N_15  and  CA_16
REMARK   10  A    between atoms: CA_16  and  C_17
REMARK   11  A    between atoms: CA_16  and  C_32
REMARK   12  A    between atoms: C_18  and  O_31
REMARK   13  A    between atoms: C_19  and  O_30
REMARK   14  A    between atoms: C_20  and  N_22
REMARK   15  A    between atoms: CA_24  and  C_28
REMARK   16  A    between atoms: C_32  and  OXT_34
REMARK                            x       y       z     vdW  Elec       q    Type
REMARK                         _______ _______ _______ _____ _____    ______ ____
ROOT
ATOM      1  CA  UNL     1       1.187   4.415  -0.558  0.00  0.00    +0.213 C 
ENDROOT
BRANCH   1   2
ATOM      2  C   UNL     1       1.516   5.889  -0.856  0.00  0.00    +0.183 C 
ATOM      3  C   UNL     1       2.791   6.144  -1.667  0.00  0.00    +0.178 C 
ATOM      4  C   UNL     1       3.345   7.459  -1.102  0.00  0.00    +0.195 C 
ATOM      5  C   UNL     1       2.282   7.920  -0.091  0.00  0.00    +0.255 C 
ATOM      6  O   UNL     1       1.607   6.710   0.314  0.00  0.00    -0.345 OA
BRANCH   5   7
ATOM      7  N   UNL     1       1.314   8.881  -0.581  0.00  0.00    -0.270 N 
ATOM      8  C   UNL     1       0.525   8.809  -1.712  0.00  0.00    +0.122 A 
ATOM      9  CA  UNL     1      -0.180   9.932  -1.822  0.00  0.00    +0.099 A 
ATOM     10  N   UNL     1       0.121  10.756  -0.766  0.00  0.00    -0.304 N 
ATOM     11  C   UNL     1       1.079  10.125   0.046  0.00  0.00    +0.329 A 
ATOM     12  O   UNL     1       1.585  10.588   1.049  0.00  0.00    -0.246 OA
ATOM     13  H   UNL     1      -0.235  11.681  -0.581  0.00  0.00    +0.171 HD
BRANCH   9  14
ATOM     14  C   UNL     1      -1.121  10.252  -2.911  0.00  0.00    +0.278 C 
ATOM     15  O   UNL     1      -1.767   9.393  -3.494  0.00  0.00    -0.294 OA
ENDBRANCH   9  14
ENDBRANCH   5   7
BRANCH   4  16
ATOM     16  O   UNL     1       3.684   8.414  -2.105  0.00  0.00    -0.385 OA
ATOM     17  H   UNL     1       4.556   8.137  -2.454  0.00  0.00    +0.210 HD
ENDBRANCH   4  16
BRANCH   3  18
ATOM     18  O   UNL     1       2.547   6.275  -3.070  0.00  0.00    -0.386 OA
ATOM     19  H   UNL     1       1.973   7.050  -3.245  0.00  0.00    +0.210 HD
ENDBRANCH   3  18
ENDBRANCH   1   2
BRANCH   1  22
ATOM     20  C   UNL     1      -0.354   3.782  -2.406  0.00  0.00    +0.231 C 
ATOM     21  O   UNL     1       0.540   3.868  -3.239  0.00  0.00    -0.274 OA
ATOM     22  N   UNL     1      -0.117   3.938  -1.050  0.00  0.00    -0.299 N 
ATOM     23  H   UNL     1      -0.917   3.981  -0.428  0.00  0.00    +0.150 HD
BRANCH  20  24
ATOM     24  CA  UNL     1      -1.803   3.372  -2.779  0.00  0.00    +0.143 C 
BRANCH  24  25
ATOM     25  N   UNL     1      -2.281   2.425  -1.748  0.00  0.00    -0.320 NA
ATOM     26  H1  UNL     1      -1.514   1.918  -1.321  0.00  0.00    +0.119 HD
ATOM     27  H2  UNL     1      -2.873   1.727  -2.212  0.00  0.00    +0.119 HD
ENDBRANCH  24  25
BRANCH  24  29
ATOM     28  C   UNL     1      -3.708   4.338  -4.130  0.00  0.00    +0.012 C 
ATOM     29  C   UNL     1      -2.765   4.578  -2.934  0.00  0.00    +0.046 C 
BRANCH  29  30
ATOM     30  C   UNL     1      -3.570   4.817  -1.628  0.00  0.00    +0.168 C 
BRANCH  30  31
ATOM     31  C   UNL     1      -3.179   6.121  -0.939  0.00  0.00    +0.070 A 
ATOM     32  N   UNL     1      -2.177   6.042  -0.019  0.00  0.00    -0.254 NA
ATOM     33  C   UNL     1      -1.857   7.176   0.647  0.00  0.00    +0.156 A 
ATOM     34  C   UNL     1      -2.486   8.392   0.435  0.00  0.00    +0.135 A 
ATOM     35  C   UNL     1      -3.492   8.461  -0.516  0.00  0.00    +0.049 A 
ATOM     36  C   UNL     1      -3.847   7.311  -1.220  0.00  0.00    +0.029 A 
BRANCH  34  37
ATOM     37  O   UNL     1      -2.164   9.524   1.117  0.00  0.00    -0.505 OA
ATOM     38  H   UNL     1      -2.808   9.664   1.831  0.00  0.00    +0.292 HD
ENDBRANCH  34  37
ENDBRANCH  30  31
BRANCH  30  39
ATOM     39  O   UNL     1      -4.971   4.849  -1.938  0.00  0.00    -0.385 OA
ATOM     40  H   UNL     1      -5.390   5.304  -1.176  0.00  0.00    +0.210 HD
ENDBRANCH  30  39
ENDBRANCH  29  30
ENDBRANCH  24  29
ENDBRANCH  20  24
ENDBRANCH   1  22
BRANCH   1  41
ATOM     41  C   UNL     1       1.278   4.194   0.955  0.00  0.00    +0.328 C 
ATOM     42  O   UNL     1       2.256   3.740   1.531  0.00  0.00    -0.249 OA
BRANCH  41  43
ATOM     43  OXT UNL     1       0.142   4.534   1.613  0.00  0.00    -0.479 OA
ATOM     44  HXT UNL     1       0.105   4.097   2.488  0.00  0.00    +0.295 HD
ENDBRANCH  41  43
ENDBRANCH   1  41
TORSDOF 15
ENDMDL
MODEL 7
REMARK VINA RESULT:     0.002      3.794      6.829
REMARK INTER + INTRA:          -3.405
REMARK INTER:                   0.000
REMARK INTRA:                  -3.405
REMARK UNBOUND:                -3.407
REMARK  Name = 
REMARK  16 active torsions:
REMARK  status: ('A' for Active; 'I' for Inactive)
REMARK    1  A    between atoms: C_1  and  C_2
REMARK    2  A    between atoms: C_2  and  C_3
REMARK    3  A    between atoms: C_2  and  CA_12
REMARK    4  A    between atoms: C_3  and  C_4
REMARK    5  A    between atoms: C_3  and  O_11
REMARK    6  A    between atoms: C_7  and  O_10
REMARK    7  A    between atoms: CA_12  and  C_13
REMARK    8  A    between atoms: CA_12  and  N_35
REMARK    9  A    between atoms: N_15  and  CA_16
REMARK   10  A    between atoms: CA_16  and  C_17
REMARK   11  A    between atoms: CA_16  and  C_32
REMARK   12  A    between atoms: C_18  and  O_31
REMARK   13  A    between atoms: C_19  and  O_30
REMARK   14  A    between atoms: C_20  and  N_22
REMARK   15  A    between atoms: CA_24  and  C_28
REMARK   16  A    between atoms: C_32  and  OXT_34
REMARK                            x       y       z     vdW  Elec       q    Type
REMARK                         _______ _______ _______ _____ _____    ______ ____
ROOT
ATOM      1  CA  UNL     1       2.834   3.173  -3.298  0.00  0.00    +0.213 C 
ENDROOT
BRANCH   1   2
ATOM      2  C   UNL     1       1.734   2.124  -3.053  0.00  0.00    +0.183 C 
ATOM      3  C   UNL     1       2.027   1.079  -1.971  0.00  0.00    +0.178 C 
ATOM      4  C   UNL     1       1.360  -0.203  -2.487  0.00  0.00    +0.195 C 
ATOM      5  C   UNL     1       0.632   0.235  -3.769  0.00  0.00    +0.255 C 
ATOM      6  O   UNL     1       1.354   1.398  -4.228  0.00  0.00    -0.345 OA
BRANCH   5   7
ATOM      7  N   UNL     1      -0.774   0.557  -3.623  0.00  0.00    -0.270 N 
ATOM      8  C   UNL     1      -1.371   1.421  -2.726  0.00  0.00    +0.122 A 
ATOM      9  CA  UNL     1      -2.691   1.377  -2.893  0.00  0.00    +0.099 A 
ATOM     10  N   UNL     1      -2.986   0.497  -3.904  0.00  0.00    -0.304 N 
ATOM     11  C   UNL     1      -1.788  -0.056  -4.392  0.00  0.00    +0.329 A 
ATOM     12  O   UNL     1      -1.690  -0.890  -5.271  0.00  0.00    -0.246 OA
ATOM     13  H   UNL     1      -3.895   0.234  -4.252  0.00  0.00    +0.171 HD
BRANCH   9  14
ATOM     14  C   UNL     1      -3.681   2.136  -2.108  0.00  0.00    +0.278 C 
ATOM     15  O   UNL     1      -3.441   3.238  -1.638  0.00  0.00    -0.294 OA
ENDBRANCH   9  14
ENDBRANCH   5   7
BRANCH   4  16
ATOM     16  O   UNL     1       0.543  -0.852  -1.516  0.00  0.00    -0.385 OA
ATOM     17  H   UNL     1       0.027  -1.524  -2.007  0.00  0.00    +0.210 HD
ENDBRANCH   4  16
BRANCH   3  18
ATOM     18  O   UNL     1       1.495   1.431  -0.691  0.00  0.00    -0.386 OA
ATOM     19  H   UNL     1       2.083   1.106   0.023  0.00  0.00    +0.210 HD
ENDBRANCH   3  18
ENDBRANCH   1   2
BRANCH   1  22
ATOM     20  C   UNL     1       2.148   5.077  -1.851  0.00  0.00    +0.231 C 
ATOM     21  O   UNL     1       2.375   4.439  -0.830  0.00  0.00    -0.274 OA
ATOM     22  N   UNL     1       2.431   4.578  -3.112  0.00  0.00    -0.299 N 
ATOM     23  H   UNL     1       2.104   5.101  -3.917  0.00  0.00    +0.150 HD
BRANCH  20  24
ATOM     24  CA  UNL     1       1.639   6.543  -1.822  0.00  0.00    +0.143 C 
BRANCH  24  25
ATOM     25  N   UNL     1       2.382   7.296  -2.857  0.00  0.00    -0.320 NA
ATOM     26  H1  UNL     1       2.178   8.289  -2.816  0.00  0.00    +0.119 HD
ATOM     27  H2  UNL     1       2.063   6.968  -3.775  0.00  0.00    +0.119 HD
ENDBRANCH  24  25
BRANCH  24  29
ATOM     28  C   UNL     1      -0.447   7.761  -1.081  0.00  0.00    +0.012 C 
ATOM     29  C   UNL     1       0.106   6.668  -2.017  0.00  0.00    +0.046 C 
BRANCH  29  30
ATOM     30  C   UNL     1      -0.242   6.974  -3.500  0.00  0.00    +0.168 C 
BRANCH  30  31
ATOM     31  C   UNL     1      -0.960   5.811  -4.175  0.00  0.00    +0.070 A 
ATOM     32  N   UNL     1      -0.172   4.894  -4.803  0.00  0.00    -0.254 NA
ATOM     33  C   UNL     1      -0.794   3.887  -5.461  0.00  0.00    +0.156 A 
ATOM     34  C   UNL     1      -2.171   3.747  -5.518  0.00  0.00    +0.135 A 
ATOM     35  C   UNL     1      -2.961   4.678  -4.861  0.00  0.00    +0.049 A 
ATOM     36  C   UNL     1      -2.351   5.728  -4.175  0.00  0.00    +0.029 A 
BRANCH  34  37
ATOM     37  O   UNL     1      -2.788   2.738  -6.191  0.00  0.00    -0.505 OA
ATOM     38  H   UNL     1      -2.578   2.807  -7.137  0.00  0.00    +0.292 HD
ENDBRANCH  34  37
ENDBRANCH  30  31
BRANCH  30  39
ATOM     39  O   UNL     1      -1.074   8.141  -3.556  0.00  0.00    -0.385 OA
ATOM     40  H   UNL     1      -1.093   8.484  -2.637  0.00  0.00    +0.210 HD
ENDBRANCH  30  39
ENDBRANCH  29  30
ENDBRANCH  24  29
ENDBRANCH  20  24
ENDBRANCH   1  22
BRANCH   1  41
ATOM     41  C   UNL     1       3.382   2.978  -4.715  0.00  0.00    +0.328 C 
ATOM     42  O   UNL     1       4.394   2.348  -4.985  0.00  0.00    -0.249 OA
BRANCH  41  43
ATOM     43  OXT UNL     1       2.640   3.601  -5.664  0.00  0.00    -0.479 OA
ATOM     44  HXT UNL     1       3.101   4.398  -5.995  0.00  0.00    +0.295 HD
ENDBRANCH  41  43
ENDBRANCH   1  41
TORSDOF 15
ENDMDL
MODEL 8
REMARK VINA RESULT:     0.002      7.229      9.589
REMARK INTER + INTRA:          -3.405
REMARK INTER:                   0.000
REMARK INTRA:                  -3.405
REMARK UNBOUND:                -3.407
REMARK  Name = 
REMARK  16 active torsions:
REMARK  status: ('A' for Active; 'I' for Inactive)
REMARK    1  A    between atoms: C_1  and  C_2
REMARK    2  A    between atoms: C_2  and  C_3
REMARK    3  A    between atoms: C_2  and  CA_12
REMARK    4  A    between atoms: C_3  and  C_4
REMARK    5  A    between atoms: C_3  and  O_11
REMARK    6  A    between atoms: C_7  and  O_10
REMARK    7  A    between atoms: CA_12  and  C_13
REMARK    8  A    between atoms: CA_12  and  N_35
REMARK    9  A    between atoms: N_15  and  CA_16
REMARK   10  A    between atoms: CA_16  and  C_17
REMARK   11  A    between atoms: CA_16  and  C_32
REMARK   12  A    between atoms: C_18  and  O_31
REMARK   13  A    between atoms: C_19  and  O_30
REMARK   14  A    between atoms: C_20  and  N_22
REMARK   15  A    between atoms: CA_24  and  C_28
REMARK   16  A    between atoms: C_32  and  OXT_34
REMARK                            x       y       z     vdW  Elec       q    Type
REMARK                         _______ _______ _______ _____ _____    ______ ____
ROOT
ATOM      1  CA  UNL     1      -3.401  -0.139   2.208  0.00  0.00    +0.213 C 
ENDROOT
BRANCH   1   2
ATOM      2  C   UNL     1      -3.963  -1.560   2.021  0.00  0.00    +0.183 C 
ATOM      3  C   UNL     1      -4.883  -2.073   3.133  0.00  0.00    +0.178 C 
ATOM      4  C   UNL     1      -4.583  -3.576   3.214  0.00  0.00    +0.195 C 
ATOM      5  C   UNL     1      -3.600  -3.832   2.060  0.00  0.00    +0.255 C 
ATOM      6  O   UNL     1      -2.955  -2.561   1.832  0.00  0.00    -0.345 OA
BRANCH   5   7
ATOM      7  N   UNL     1      -4.183  -4.314   0.823  0.00  0.00    -0.270 N 
ATOM      8  C   UNL     1      -5.234  -3.783   0.102  0.00  0.00    +0.122 A 
ATOM      9  CA  UNL     1      -5.487  -4.571  -0.940  0.00  0.00    +0.099 A 
ATOM     10  N   UNL     1      -4.606  -5.624  -0.932  0.00  0.00    -0.304 N 
ATOM     11  C   UNL     1      -3.761  -5.502   0.185  0.00  0.00    +0.329 A 
ATOM     12  O   UNL     1      -2.884  -6.279   0.508  0.00  0.00    -0.246 OA
ATOM     13  H   UNL     1      -4.557  -6.396  -1.578  0.00  0.00    +0.171 HD
BRANCH   9  14
ATOM     14  C   UNL     1      -6.553  -4.360  -1.936  0.00  0.00    +0.278 C 
ATOM     15  O   UNL     1      -6.936  -3.246  -2.262  0.00  0.00    -0.294 OA
ENDBRANCH   9  14
ENDBRANCH   5   7
BRANCH   4  16
ATOM     16  O   UNL     1      -5.751  -4.393   3.209  0.00  0.00    -0.385 OA
ATOM     17  H   UNL     1      -5.862  -4.706   4.130  0.00  0.00    +0.210 HD
ENDBRANCH   4  16
BRANCH   3  18
ATOM     18  O   UNL     1      -6.270  -1.862   2.857  0.00  0.00    -0.386 OA
ATOM     19  H   UNL     1      -6.572  -1.019   3.255  0.00  0.00    +0.210 HD
ENDBRANCH   3  18
ENDBRANCH   1   2
BRANCH   1  22
ATOM     20  C   UNL     1      -5.016   1.288   0.965  0.00  0.00    +0.231 C 
ATOM     21  O   UNL     1      -5.907   1.060   1.775  0.00  0.00    -0.274 OA
ATOM     22  N   UNL     1      -3.724   0.823   1.139  0.00  0.00    -0.299 N 
ATOM     23  H   UNL     1      -3.068   0.936   0.374  0.00  0.00    +0.150 HD
BRANCH  20  24
ATOM     24  CA  UNL     1      -5.224   2.214  -0.263  0.00  0.00    +0.143 C 
BRANCH  24  25
ATOM     25  N   UNL     1      -4.020   3.065  -0.391  0.00  0.00    -0.320 NA
ATOM     26  H1  UNL     1      -3.176   2.510  -0.480  0.00  0.00    +0.119 HD
ATOM     27  H2  UNL     1      -3.926   3.608   0.475  0.00  0.00    +0.119 HD
ENDBRANCH  24  25
BRANCH  24  29
ATOM     28  C   UNL     1      -6.594   2.192  -2.386  0.00  0.00    +0.012 C 
ATOM     29  C   UNL     1      -5.518   1.443  -1.576  0.00  0.00    +0.046 C 
BRANCH  29  30
ATOM     30  C   UNL     1      -4.222   1.253  -2.410  0.00  0.00    +0.168 C 
BRANCH  30  31
ATOM     31  C   UNL     1      -3.788  -0.208  -2.479  0.00  0.00    +0.070 A 
ATOM     32  N   UNL     1      -2.933  -0.632  -1.506  0.00  0.00    -0.254 NA
ATOM     33  C   UNL     1      -2.489  -1.908  -1.585  0.00  0.00    +0.156 A 
ATOM     34  C   UNL     1      -2.862  -2.788  -2.588  0.00  0.00    +0.135 A 
ATOM     35  C   UNL     1      -3.746  -2.348  -3.562  0.00  0.00    +0.049 A 
ATOM     36  C   UNL     1      -4.222  -1.038  -3.510  0.00  0.00    +0.029 A 
BRANCH  34  37
ATOM     37  O   UNL     1      -2.402  -4.066  -2.665  0.00  0.00    -0.505 OA
ATOM     38  H   UNL     1      -2.673  -4.554  -1.869  0.00  0.00    +0.292 HD
ENDBRANCH  34  37
ENDBRANCH  30  31
BRANCH  30  39
ATOM     39  O   UNL     1      -4.443   1.743  -3.740  0.00  0.00    -0.385 OA
ATOM     40  H   UNL     1      -3.749   2.422  -3.880  0.00  0.00    +0.210 HD
ENDBRANCH  30  39
ENDBRANCH  29  30
ENDBRANCH  24  29
ENDBRANCH  20  24
ENDBRANCH   1  22
BRANCH   1  41
ATOM     41  C   UNL     1      -1.881  -0.236   2.371  0.00  0.00    +0.328 C 
ATOM     42  O   UNL     1      -1.300  -0.242   3.447  0.00  0.00    -0.249 OA
BRANCH  41  43
ATOM     43  OXT UNL     1      -1.220  -0.293   1.189  0.00  0.00    -0.479 OA
ATOM     44  HXT UNL     1      -0.607  -1.057   1.173  0.00  0.00    +0.295 HD
ENDBRANCH  41  43
ENDBRANCH   1  41
TORSDOF 15
ENDMDL
MODEL 9
REMARK VINA RESULT:     0.002      2.641      6.698
REMARK INTER + INTRA:          -3.404
REMARK INTER:                   0.000
REMARK INTRA:                  -3.404
REMARK UNBOUND:                -3.407
REMARK  Name = 
REMARK  16 active torsions:
REMARK  status: ('A' for Active; 'I' for Inactive)
REMARK    1  A    between atoms: C_1  and  C_2
REMARK    2  A    between atoms: C_2  and  C_3
REMARK    3  A    between atoms: C_2  and  CA_12
REMARK    4  A    between atoms: C_3  and  C_4
REMARK    5  A    between atoms: C_3  and  O_11
REMARK    6  A    between atoms: C_7  and  O_10
REMARK    7  A    between atoms: CA_12  and  C_13
REMARK    8  A    between atoms: CA_12  and  N_35
REMARK    9  A    between atoms: N_15  and  CA_16
REMARK   10  A    between atoms: CA_16  and  C_17
REMARK   11  A    between atoms: CA_16  and  C_32
REMARK   12  A    between atoms: C_18  and  O_31
REMARK   13  A    between atoms: C_19  and  O_30
REMARK   14  A    between atoms: C_20  and  N_22
REMARK   15  A    between atoms: CA_24  and  C_28
REMARK   16  A    between atoms: C_32  and  OXT_34
REMARK                            x       y       z     vdW  Elec       q    Type
REMARK                         _______ _______ _______ _____ _____    ______ ____
ROOT
ATOM      1  CA  UNL     1       3.939   1.751  -3.189  0.00  0.00    +0.213 C 
ENDROOT
BRANCH   1   2
ATOM      2  C   UNL     1       2.925   2.391  -2.223  0.00  0.00    +0.183 C 
ATOM      3  C   UNL     1       2.813   3.918  -2.277  0.00  0.00    +0.178 C 
ATOM      4  C   UNL     1       2.531   4.332  -0.826  0.00  0.00    +0.195 C 
ATOM      5  C   UNL     1       2.385   3.001  -0.070  0.00  0.00    +0.255 C 
ATOM      6  O   UNL     1       3.139   2.047  -0.848  0.00  0.00    -0.345 OA
BRANCH   5   7
ATOM      7  N   UNL     1       1.029   2.520   0.114  0.00  0.00    -0.270 N 
ATOM      8  C   UNL     1       0.042   2.344  -0.835  0.00  0.00    +0.122 A 
ATOM      9  CA  UNL     1      -1.074   1.941  -0.231  0.00  0.00    +0.099 A 
ATOM     10  N   UNL     1      -0.841   1.835   1.117  0.00  0.00    -0.304 N 
ATOM     11  C   UNL     1       0.489   2.206   1.381  0.00  0.00    +0.329 A 
ATOM     12  O   UNL     1       1.017   2.251   2.475  0.00  0.00    -0.246 OA
ATOM     13  H   UNL     1      -1.493   1.572   1.840  0.00  0.00    +0.171 HD
BRANCH   9  14
ATOM     14  C   UNL     1      -2.360   1.669  -0.898  0.00  0.00    +0.278 C 
ATOM     15  O   UNL     1      -2.430   1.243  -2.042  0.00  0.00    -0.294 OA
ENDBRANCH   9  14
ENDBRANCH   5   7
BRANCH   4  16
ATOM     16  O   UNL     1       1.433   5.230  -0.692  0.00  0.00    -0.385 OA
ATOM     17  H   UNL     1       1.594   5.727   0.137  0.00  0.00    +0.210 HD
ENDBRANCH   4  16
BRANCH   3  18
ATOM     18  O   UNL     1       1.761   4.374  -3.132  0.00  0.00    -0.386 OA
ATOM     19  H   UNL     1       1.001   3.757  -3.096  0.00  0.00    +0.210 HD
ENDBRANCH   3  18
ENDBRANCH   1   2
BRANCH   1  22
ATOM     20  C   UNL     1       2.555   1.168  -5.172  0.00  0.00    +0.231 C 
ATOM     21  O   UNL     1       2.374   2.348  -5.448  0.00  0.00    -0.274 OA
ATOM     22  N   UNL     1       3.386   0.769  -4.139  0.00  0.00    -0.299 N 
ATOM     23  H   UNL     1       3.392  -0.211  -3.882  0.00  0.00    +0.150 HD
BRANCH  20  24
ATOM     24  CA  UNL     1       1.968   0.014  -6.028  0.00  0.00    +0.143 C 
BRANCH  24  25
ATOM     25  N   UNL     1       3.019  -1.019  -6.170  0.00  0.00    -0.320 NA
ATOM     26  H1  UNL     1       3.737  -0.922  -5.460  0.00  0.00    +0.119 HD
ATOM     27  H2  UNL     1       3.479  -0.876  -7.076  0.00  0.00    +0.119 HD
ENDBRANCH  24  25
BRANCH  24  29
ATOM     28  C   UNL     1      -0.324  -0.888  -6.594  0.00  0.00    +0.012 C 
ATOM     29  C   UNL     1       0.660  -0.582  -5.447  0.00  0.00    +0.046 C 
BRANCH  29  30
ATOM     30  C   UNL     1       0.954  -1.856  -4.608  0.00  0.00    +0.168 C 
BRANCH  30  31
ATOM     31  C   UNL     1       0.684  -1.643  -3.123  0.00  0.00    +0.070 A 
ATOM     32  N   UNL     1       1.734  -1.204  -2.373  0.00  0.00    -0.254 NA
ATOM     33  C   UNL     1       1.531  -1.068  -1.041  0.00  0.00    +0.156 A 
ATOM     34  C   UNL     1       0.325  -1.345  -0.419  0.00  0.00    +0.135 A 
ATOM     35  C   UNL     1      -0.739  -1.776  -1.196  0.00  0.00    +0.049 A 
ATOM     36  C   UNL     1      -0.564  -1.927  -2.571  0.00  0.00    +0.029 A 
BRANCH  34  37
ATOM     37  O   UNL     1       0.134  -1.216   0.922  0.00  0.00    -0.505 OA
ATOM     38  H   UNL     1      -0.794  -1.410   1.135  0.00  0.00    +0.292 HD
ENDBRANCH  34  37
ENDBRANCH  30  31
BRANCH  30  39
ATOM     39  O   UNL     1       0.137  -2.933  -5.088  0.00  0.00    -0.385 OA
ATOM     40  H   UNL     1      -0.520  -2.510  -5.681  0.00  0.00    +0.210 HD
ENDBRANCH  30  39
ENDBRANCH  29  30
ENDBRANCH  24  29
ENDBRANCH  20  24
ENDBRANCH   1  22
BRANCH   1  41
ATOM     41  C   UNL     1       5.051   1.098  -2.362  0.00  0.00    +0.328 C 
ATOM     42  O   UNL     1       6.128   1.621  -2.116  0.00  0.00    -0.249 OA
BRANCH  41  43
ATOM     43  OXT UNL     1       4.736  -0.150  -1.937  0.00  0.00    -0.479 OA
ATOM     44  HXT UNL     1       3.833  -0.396  -2.225  0.00  0.00    +0.295 HD
ENDBRANCH  41  43
ENDBRANCH   1  41
TORSDOF 15
ENDMDL
