MODEL 1
REMARK VINA RESULT:    -4.834      0.000      0.000
REMARK INTER + INTRA:         -11.354
REMARK INTER:                  -7.942
REMARK INTRA:                  -3.412
REMARK UNBOUND:                -3.412
REMARK  Name = 456557
REMARK  15 active torsions:
REMARK  status: ('A' for Active; 'I' for Inactive)
REMARK    1  A    between atoms: O_2  and  C_17
REMARK    2  A    between atoms: O_3  and  C_18
REMARK    3  A    between atoms: O_4  and  C_22
REMARK    4  A    between atoms: O_7  and  C_27
REMARK    5  A    between atoms: O_10  and  C_35
REMARK    6  A    between atoms: N_11  and  C_19
REMARK    7  A    between atoms: N_12  and  CA_20
REMARK    8  A    between atoms: N_13  and  CA_21
REMARK    9  A    between atoms: C_16  and  CA_20
REMARK   10  A    between atoms: CA_20  and  C_22
REMARK   11  A    between atoms: CA_21  and  C_23
REMARK   12  A    between atoms: CA_21  and  C_24
REMARK   13  A    between atoms: C_23  and  C_27
REMARK   14  A    between atoms: C_23  and  C_28
REMARK   15  A    between atoms: C_27  and  C_30
REMARK                            x       y       z     vdW  Elec       q    Type
REMARK                         _______ _______ _______ _____ _____    ______ ____
ROOT
ATOM      1  CA  UNL     1      97.667 136.316  57.035  0.00  0.00    +0.213 C 
ENDROOT
BRANCH   1   3
ATOM      2  O   UNL     1      99.061 136.297  59.072  0.00  0.00    -0.345 OA
ATOM      3  C   UNL     1      97.924 135.670  58.421  0.00  0.00    +0.183 C 
ATOM      4  C   UNL     1      96.765 135.808  59.419  0.00  0.00    +0.178 C 
ATOM      5  C   UNL     1      97.096 137.093  60.171  0.00  0.00    +0.195 C 
ATOM      6  C   UNL     1      98.617 136.938  60.282  0.00  0.00    +0.255 C 
BRANCH   6   9
ATOM      7  O   UNL     1      99.128 138.151  62.753  0.00  0.00    -0.246 OA
ATOM      8  O   UNL     1     100.666 141.895  60.898  0.00  0.00    -0.268 OA
ATOM      9  N   UNL     1      99.412 138.151  60.457  0.00  0.00    -0.271 N 
ATOM     10  N   UNL     1     100.280 139.847  61.810  0.00  0.00    -0.275 N 
ATOM     11  C   UNL     1      99.603 138.658  61.734  0.00  0.00    +0.331 A 
ATOM     12  C   UNL     1      99.776 138.871  59.336  0.00  0.00    +0.098 A 
ATOM     13  C   UNL     1     100.272 140.108  59.424  0.00  0.00    +0.088 A 
ATOM     14  C   UNL     1     100.439 140.699  60.758  0.00  0.00    +0.254 A 
ATOM     15  H   UNL     1     100.340 140.276  62.721  0.00  0.00    +0.173 HD
ENDBRANCH   6   9
BRANCH   4  16
ATOM     16  O   UNL     1      96.797 134.762  60.421  0.00  0.00    -0.386 OA
ATOM     17  H   UNL     1      97.648 134.814  60.896  0.00  0.00    +0.210 HD
ENDBRANCH   4  16
BRANCH   5  18
ATOM     18  O   UNL     1      96.441 137.118  61.444  0.00  0.00    -0.385 OA
ATOM     19  H   UNL     1      96.059 138.025  61.514  0.00  0.00    +0.210 HD
ENDBRANCH   5  18
ENDBRANCH   1   3
BRANCH   1  21
ATOM     20  O   UNL     1      97.177 139.156  56.892  0.00  0.00    -0.274 OA
ATOM     21  N   UNL     1      96.389 137.022  56.833  0.00  0.00    -0.299 N 
ATOM     22  C   UNL     1      96.229 138.381  56.946  0.00  0.00    +0.231 C 
ATOM     23  H   UNL     1      95.529 136.507  57.041  0.00  0.00    +0.150 HD
BRANCH  22  24
ATOM     24  CA  UNL     1      94.775 138.879  57.148  0.00  0.00    +0.143 C 
BRANCH  24  25
ATOM     25  N   UNL     1      93.970 138.452  55.967  0.00  0.00    -0.320 NA
ATOM     26  H1  UNL     1      93.801 137.446  56.022  0.00  0.00    +0.119 HD
ATOM     27  H2  UNL     1      93.043 138.875  56.042  0.00  0.00    +0.119 HD
ENDBRANCH  24  25
BRANCH  24  28
ATOM     28  C   UNL     1      94.159 138.372  58.478  0.00  0.00    +0.046 C 
ATOM     29  C   UNL     1      93.035 137.339  58.239  0.00  0.00    +0.012 C 
BRANCH  28  30
ATOM     30  C   UNL     1      93.703 139.508  59.447  0.00  0.00    +0.168 C 
BRANCH  30  32
ATOM     31  N   UNL     1      94.498 139.603  61.780  0.00  0.00    -0.254 NA
ATOM     32  C   UNL     1      94.706 139.985  60.492  0.00  0.00    +0.070 A 
ATOM     33  C   UNL     1      95.867 140.661  60.105  0.00  0.00    +0.029 A 
ATOM     34  C   UNL     1      96.818 141.000  61.063  0.00  0.00    +0.049 A 
ATOM     35  C   UNL     1      95.449 139.934  62.689  0.00  0.00    +0.156 A 
ATOM     36  C   UNL     1      96.612 140.619  62.375  0.00  0.00    +0.135 A 
BRANCH  36  37
ATOM     37  O   UNL     1      97.571 140.920  63.293  0.00  0.00    -0.505 OA
ATOM     38  H   UNL     1      98.432 140.613  62.963  0.00  0.00    +0.292 HD
ENDBRANCH  36  37
ENDBRANCH  30  32
BRANCH  30  39
ATOM     39  O   UNL     1      93.338 140.656  58.658  0.00  0.00    -0.385 OA
ATOM     40  H   UNL     1      94.148 141.199  58.604  0.00  0.00    +0.210 HD
ENDBRANCH  30  39
ENDBRANCH  28  30
ENDBRANCH  24  28
ENDBRANCH  22  24
ENDBRANCH   1  21
BRANCH   1  42
ATOM     41  OXT UNL     1      98.655 135.095  55.158  0.00  0.00    -0.249 OA
ATOM     42  C   UNL     1      97.747 135.205  55.975  0.00  0.00    +0.328 C 
BRANCH  42  43
ATOM     43  O   UNL     1      96.715 134.328  56.031  0.00  0.00    -0.479 OA
ATOM     44  H   UNL     1      96.970 133.450  56.400  0.00  0.00    +0.295 HD
ENDBRANCH  42  43
ENDBRANCH   1  42
TORSDOF 14
ENDMDL
MODEL 2
REMARK VINA RESULT:    -4.593      2.266      5.744
REMARK INTER + INTRA:         -10.959
REMARK INTER:                  -8.415
REMARK INTRA:                  -2.543
REMARK UNBOUND:                -3.412
REMARK  Name = 456557
REMARK  15 active torsions:
REMARK  status: ('A' for Active; 'I' for Inactive)
REMARK    1  A    between atoms: O_2  and  C_17
REMARK    2  A    between atoms: O_3  and  C_18
REMARK    3  A    between atoms: O_4  and  C_22
REMARK    4  A    between atoms: O_7  and  C_27
REMARK    5  A    between atoms: O_10  and  C_35
REMARK    6  A    between atoms: N_11  and  C_19
REMARK    7  A    between atoms: N_12  and  CA_20
REMARK    8  A    between atoms: N_13  and  CA_21
REMARK    9  A    between atoms: C_16  and  CA_20
REMARK   10  A    between atoms: CA_20  and  C_22
REMARK   11  A    between atoms: CA_21  and  C_23
REMARK   12  A    between atoms: CA_21  and  C_24
REMARK   13  A    between atoms: C_23  and  C_27
REMARK   14  A    between atoms: C_23  and  C_28
REMARK   15  A    between atoms: C_27  and  C_30
REMARK                            x       y       z     vdW  Elec       q    Type
REMARK                         _______ _______ _______ _____ _____    ______ ____
ROOT
ATOM      1  CA  UNL     1      96.436 139.297  59.408  0.00  0.00    +0.213 C 
ENDROOT
BRANCH   1   3
ATOM      2  O   UNL     1      96.593 138.001  57.313  0.00  0.00    -0.345 OA
ATOM      3  C   UNL     1      95.734 138.878  58.090  0.00  0.00    +0.183 C 
ATOM      4  C   UNL     1      94.428 138.094  58.280  0.00  0.00    +0.178 C 
ATOM      5  C   UNL     1      94.882 136.639  58.274  0.00  0.00    +0.195 C 
ATOM      6  C   UNL     1      95.961 136.713  57.187  0.00  0.00    +0.255 C 
BRANCH   6   9
ATOM      7  O   UNL     1      97.324 135.888  59.489  0.00  0.00    -0.246 OA
ATOM      8  O   UNL     1     100.478 133.756  57.180  0.00  0.00    -0.268 OA
ATOM      9  N   UNL     1      97.013 135.700  57.204  0.00  0.00    -0.271 N 
ATOM     10  N   UNL     1      98.655 134.479  58.333  0.00  0.00    -0.275 N 
ATOM     11  C   UNL     1      97.615 135.368  58.409  0.00  0.00    +0.331 A 
ATOM     12  C   UNL     1      97.521 135.253  56.000  0.00  0.00    +0.098 A 
ATOM     13  C   UNL     1      98.644 134.533  55.934  0.00  0.00    +0.088 A 
ATOM     14  C   UNL     1      99.339 134.207  57.186  0.00  0.00    +0.254 A 
ATOM     15  H   UNL     1      99.165 134.305  59.186  0.00  0.00    +0.173 HD
ENDBRANCH   6   9
BRANCH   4  16
ATOM     16  O   UNL     1      93.556 138.225  57.129  0.00  0.00    -0.386 OA
ATOM     17  H   UNL     1      92.696 138.576  57.430  0.00  0.00    +0.210 HD
ENDBRANCH   4  16
BRANCH   5  18
ATOM     18  O   UNL     1      93.798 135.770  57.930  0.00  0.00    -0.385 OA
ATOM     19  H   UNL     1      93.934 134.964  58.482  0.00  0.00    +0.210 HD
ENDBRANCH   5  18
ENDBRANCH   1   3
BRANCH   1  21
ATOM     20  O   UNL     1      99.091 140.343  58.972  0.00  0.00    -0.274 OA
ATOM     21  N   UNL     1      97.735 138.675  59.722  0.00  0.00    -0.299 N 
ATOM     22  C   UNL     1      98.950 139.178  59.324  0.00  0.00    +0.231 C 
ATOM     23  H   UNL     1      97.753 137.660  59.847  0.00  0.00    +0.150 HD
BRANCH  22  24
ATOM     24  CA  UNL     1     100.137 138.181  59.349  0.00  0.00    +0.143 C 
BRANCH  24  25
ATOM     25  N   UNL     1     100.996 138.452  58.159  0.00  0.00    -0.320 NA
ATOM     26  H1  UNL     1     100.580 139.205  57.610  0.00  0.00    +0.119 HD
ATOM     27  H2  UNL     1     101.886 138.831  58.487  0.00  0.00    +0.119 HD
ENDBRANCH  24  25
BRANCH  24  28
ATOM     28  C   UNL     1     100.945 138.261  60.671  0.00  0.00    +0.046 C 
ATOM     29  C   UNL     1     102.454 138.023  60.444  0.00  0.00    +0.012 C 
BRANCH  28  30
ATOM     30  C   UNL     1     100.385 137.363  61.819  0.00  0.00    +0.168 C 
BRANCH  30  32
ATOM     31  N   UNL     1      98.415 138.410  62.870  0.00  0.00    -0.254 NA
ATOM     32  C   UNL     1      99.723 138.063  63.001  0.00  0.00    +0.070 A 
ATOM     33  C   UNL     1     100.401 138.202  64.214  0.00  0.00    +0.029 A 
ATOM     34  C   UNL     1      99.745 138.755  65.311  0.00  0.00    +0.049 A 
ATOM     35  C   UNL     1      97.797 138.931  63.959  0.00  0.00    +0.156 A 
ATOM     36  C   UNL     1      98.417 139.114  65.185  0.00  0.00    +0.135 A 
BRANCH  36  37
ATOM     37  O   UNL     1      97.778 139.612  66.278  0.00  0.00    -0.505 OA
ATOM     38  H   UNL     1      96.973 140.074  65.991  0.00  0.00    +0.292 HD
ENDBRANCH  36  37
ENDBRANCH  30  32
BRANCH  30  39
ATOM     39  O   UNL     1      99.406 136.469  61.256  0.00  0.00    -0.385 OA
ATOM     40  H   UNL     1      99.416 135.680  61.833  0.00  0.00    +0.210 HD
ENDBRANCH  30  39
ENDBRANCH  28  30
ENDBRANCH  24  28
ENDBRANCH  22  24
ENDBRANCH   1  21
BRANCH   1  42
ATOM     41  OXT UNL     1      94.482 139.631  60.843  0.00  0.00    -0.249 OA
ATOM     42  C   UNL     1      95.484 138.978  60.572  0.00  0.00    +0.328 C 
BRANCH  42  43
ATOM     43  O   UNL     1      95.844 137.879  61.279  0.00  0.00    -0.479 OA
ATOM     44  H   UNL     1      96.821 137.755  61.334  0.00  0.00    +0.295 HD
ENDBRANCH  42  43
ENDBRANCH   1  42
TORSDOF 14
ENDMDL
MODEL 3
REMARK VINA RESULT:    -4.549      2.438      7.442
REMARK INTER + INTRA:         -10.886
REMARK INTER:                  -8.929
REMARK INTRA:                  -1.957
REMARK UNBOUND:                -3.412
REMARK  Name = 456557
REMARK  15 active torsions:
REMARK  status: ('A' for Active; 'I' for Inactive)
REMARK    1  A    between atoms: O_2  and  C_17
REMARK    2  A    between atoms: O_3  and  C_18
REMARK    3  A    between atoms: O_4  and  C_22
REMARK    4  A    between atoms: O_7  and  C_27
REMARK    5  A    between atoms: O_10  and  C_35
REMARK    6  A    between atoms: N_11  and  C_19
REMARK    7  A    between atoms: N_12  and  CA_20
REMARK    8  A    between atoms: N_13  and  CA_21
REMARK    9  A    between atoms: C_16  and  CA_20
REMARK   10  A    between atoms: CA_20  and  C_22
REMARK   11  A    between atoms: CA_21  and  C_23
REMARK   12  A    between atoms: CA_21  and  C_24
REMARK   13  A    between atoms: C_23  and  C_27
REMARK   14  A    between atoms: C_23  and  C_28
REMARK   15  A    between atoms: C_27  and  C_30
REMARK                            x       y       z     vdW  Elec       q    Type
REMARK                         _______ _______ _______ _____ _____    ______ ____
ROOT
ATOM      1  CA  UNL     1      97.486 138.718  60.929  0.00  0.00    +0.213 C 
ENDROOT
BRANCH   1   3
ATOM      2  O   UNL     1      95.287 137.770  60.329  0.00  0.00    -0.345 OA
ATOM      3  C   UNL     1      96.606 137.444  60.843  0.00  0.00    +0.183 C 
ATOM      4  C   UNL     1      97.144 136.356  59.903  0.00  0.00    +0.178 C 
ATOM      5  C   UNL     1      96.475 136.674  58.570  0.00  0.00    +0.195 C 
ATOM      6  C   UNL     1      95.088 137.091  59.075  0.00  0.00    +0.255 C 
BRANCH   6   9
ATOM      7  O   UNL     1      92.590 136.407  58.012  0.00  0.00    -0.246 OA
ATOM      8  O   UNL     1      92.573 139.825  55.157  0.00  0.00    -0.268 OA
ATOM      9  N   UNL     1      94.289 137.964  58.220  0.00  0.00    -0.271 N 
ATOM     10  N   UNL     1      92.410 138.355  56.886  0.00  0.00    -0.275 N 
ATOM     11  C   UNL     1      93.060 137.519  57.756  0.00  0.00    +0.331 A 
ATOM     12  C   UNL     1      94.865 139.120  57.732  0.00  0.00    +0.098 A 
ATOM     13  C   UNL     1      94.300 139.830  56.752  0.00  0.00    +0.088 A 
ATOM     14  C   UNL     1      93.023 139.359  56.198  0.00  0.00    +0.254 A 
ATOM     15  H   UNL     1      91.566 138.002  56.465  0.00  0.00    +0.173 HD
ENDBRANCH   6   9
BRANCH   4  16
ATOM     16  O   UNL     1      96.652 135.042  60.271  0.00  0.00    -0.386 OA
ATOM     17  H   UNL     1      95.702 134.997  60.056  0.00  0.00    +0.210 HD
ENDBRANCH   4  16
BRANCH   5  18
ATOM     18  O   UNL     1      96.441 135.515  57.730  0.00  0.00    -0.385 OA
ATOM     19  H   UNL     1      97.317 135.082  57.860  0.00  0.00    +0.210 HD
ENDBRANCH   5  18
ENDBRANCH   1   3
BRANCH   1  21
ATOM     20  O   UNL     1      99.862 140.279  60.432  0.00  0.00    -0.274 OA
ATOM     21  N   UNL     1      98.817 138.592  61.548  0.00  0.00    -0.299 N 
ATOM     22  C   UNL     1      99.934 139.272  61.127  0.00  0.00    +0.231 C 
ATOM     23  H   UNL     1      99.046 137.701  61.995  0.00  0.00    +0.150 HD
BRANCH  22  24
ATOM     24  CA  UNL     1     101.296 138.688  61.583  0.00  0.00    +0.143 C 
BRANCH  24  25
ATOM     25  N   UNL     1     101.113 138.082  62.934  0.00  0.00    -0.320 NA
ATOM     26  H1  UNL     1     101.085 137.066  62.845  0.00  0.00    +0.119 HD
ATOM     27  H2  UNL     1     101.951 138.273  63.486  0.00  0.00    +0.119 HD
ENDBRANCH  24  25
BRANCH  24  28
ATOM     28  C   UNL     1     101.867 137.664  60.567  0.00  0.00    +0.046 C 
ATOM     29  C   UNL     1     101.991 138.263  59.149  0.00  0.00    +0.012 C 
BRANCH  28  30
ATOM     30  C   UNL     1     101.121 136.293  60.552  0.00  0.00    +0.168 C 
BRANCH  30  32
ATOM     31  N   UNL     1     102.228 134.825  58.909  0.00  0.00    -0.254 NA
ATOM     32  C   UNL     1     101.105 135.515  59.240  0.00  0.00    +0.070 A 
ATOM     33  C   UNL     1      99.929 135.404  58.494  0.00  0.00    +0.029 A 
ATOM     34  C   UNL     1      99.909 134.608  57.353  0.00  0.00    +0.049 A 
ATOM     35  C   UNL     1     102.175 134.045  57.800  0.00  0.00    +0.156 A 
ATOM     36  C   UNL     1     101.048 133.906  57.006  0.00  0.00    +0.135 A 
BRANCH  36  37
ATOM     37  O   UNL     1     101.000 133.099  55.912  0.00  0.00    -0.505 OA
ATOM     38  H   UNL     1     100.240 132.498  55.995  0.00  0.00    +0.292 HD
ENDBRANCH  36  37
ENDBRANCH  30  32
BRANCH  30  39
ATOM     39  O   UNL     1     101.726 135.438  61.541  0.00  0.00    -0.385 OA
ATOM     40  H   UNL     1     102.559 135.884  61.791  0.00  0.00    +0.210 HD
ENDBRANCH  30  39
ENDBRANCH  28  30
ENDBRANCH  24  28
ENDBRANCH  22  24
ENDBRANCH   1  21
BRANCH   1  42
ATOM     41  OXT UNL     1      96.742 140.979  61.502  0.00  0.00    -0.249 OA
ATOM     42  C   UNL     1      96.708 139.775  61.731  0.00  0.00    +0.328 C 
BRANCH  42  43
ATOM     43  O   UNL     1      95.951 139.250  62.726  0.00  0.00    -0.479 OA
ATOM     44  H   UNL     1      96.380 138.486  63.179  0.00  0.00    +0.295 HD
ENDBRANCH  42  43
ENDBRANCH   1  42
TORSDOF 14
ENDMDL
MODEL 4
REMARK VINA RESULT:    -4.496      2.389      6.107
REMARK INTER + INTRA:         -10.798
REMARK INTER:                  -8.424
REMARK INTRA:                  -2.374
REMARK UNBOUND:                -3.412
REMARK  Name = 456557
REMARK  15 active torsions:
REMARK  status: ('A' for Active; 'I' for Inactive)
REMARK    1  A    between atoms: O_2  and  C_17
REMARK    2  A    between atoms: O_3  and  C_18
REMARK    3  A    between atoms: O_4  and  C_22
REMARK    4  A    between atoms: O_7  and  C_27
REMARK    5  A    between atoms: O_10  and  C_35
REMARK    6  A    between atoms: N_11  and  C_19
REMARK    7  A    between atoms: N_12  and  CA_20
REMARK    8  A    between atoms: N_13  and  CA_21
REMARK    9  A    between atoms: C_16  and  CA_20
REMARK   10  A    between atoms: CA_20  and  C_22
REMARK   11  A    between atoms: CA_21  and  C_23
REMARK   12  A    between atoms: CA_21  and  C_24
REMARK   13  A    between atoms: C_23  and  C_27
REMARK   14  A    between atoms: C_23  and  C_28
REMARK   15  A    between atoms: C_27  and  C_30
REMARK                            x       y       z     vdW  Elec       q    Type
REMARK                         _______ _______ _______ _____ _____    ______ ____
ROOT
ATOM      1  CA  UNL     1      98.931 138.937  60.098  0.00  0.00    +0.213 C 
ENDROOT
BRANCH   1   3
ATOM      2  O   UNL     1      97.915 137.682  58.230  0.00  0.00    -0.345 OA
ATOM      3  C   UNL     1      97.628 138.370  59.477  0.00  0.00    +0.183 C 
ATOM      4  C   UNL     1      96.900 137.334  60.346  0.00  0.00    +0.178 C 
ATOM      5  C   UNL     1      97.476 136.004  59.872  0.00  0.00    +0.195 C 
ATOM      6  C   UNL     1      97.573 136.291  58.369  0.00  0.00    +0.255 C 
BRANCH   6   9
ATOM      7  O   UNL     1      96.986 134.998  55.955  0.00  0.00    -0.246 OA
ATOM      8  O   UNL     1     100.764 132.642  55.990  0.00  0.00    -0.268 OA
ATOM      9  N   UNL     1      98.538 135.518  57.591  0.00  0.00    -0.271 N 
ATOM     10  N   UNL     1      99.066 134.142  55.778  0.00  0.00    -0.275 N 
ATOM     11  C   UNL     1      98.133 134.926  56.403  0.00  0.00    +0.331 A 
ATOM     12  C   UNL     1      99.763 135.227  58.157  0.00  0.00    +0.098 A 
ATOM     13  C   UNL     1     100.588 134.322  57.625  0.00  0.00    +0.088 A 
ATOM     14  C   UNL     1     100.169 133.634  56.396  0.00  0.00    +0.254 A 
ATOM     15  H   UNL     1      98.755 133.627  54.969  0.00  0.00    +0.173 HD
ENDBRANCH   6   9
BRANCH   4  16
ATOM     16  O   UNL     1      95.487 137.271  60.030  0.00  0.00    -0.386 OA
ATOM     17  H   UNL     1      95.386 136.881  59.141  0.00  0.00    +0.210 HD
ENDBRANCH   4  16
BRANCH   5  18
ATOM     18  O   UNL     1      96.585 134.926  60.180  0.00  0.00    -0.385 OA
ATOM     19  H   UNL     1      95.700 135.233  59.872  0.00  0.00    +0.210 HD
ENDBRANCH   5  18
ENDBRANCH   1   3
BRANCH   1  21
ATOM     20  O   UNL     1     100.311 137.282  62.018  0.00  0.00    -0.274 OA
ATOM     21  N   UNL     1      98.988 139.077  61.564  0.00  0.00    -0.299 N 
ATOM     22  C   UNL     1      99.533 138.143  62.411  0.00  0.00    +0.231 C 
ATOM     23  H   UNL     1      98.254 139.631  62.012  0.00  0.00    +0.150 HD
BRANCH  22  24
ATOM     24  CA  UNL     1      99.106 138.243  63.897  0.00  0.00    +0.143 C 
BRANCH  24  25
ATOM     25  N   UNL     1     100.236 137.754  64.739  0.00  0.00    -0.320 NA
ATOM     26  H1  UNL     1      99.880 137.492  65.660  0.00  0.00    +0.119 HD
ATOM     27  H2  UNL     1     100.581 136.881  64.336  0.00  0.00    +0.119 HD
ENDBRANCH  24  25
BRANCH  24  28
ATOM     28  C   UNL     1      98.677 139.681  64.290  0.00  0.00    +0.046 C 
ATOM     29  C   UNL     1      99.837 140.478  64.928  0.00  0.00    +0.012 C 
BRANCH  28  30
ATOM     30  C   UNL     1      97.383 139.749  65.160  0.00  0.00    +0.168 C 
BRANCH  30  32
ATOM     31  N   UNL     1      96.001 139.525  63.130  0.00  0.00    -0.254 NA
ATOM     32  C   UNL     1      96.053 139.913  64.432  0.00  0.00    +0.070 A 
ATOM     33  C   UNL     1      94.907 140.307  65.126  0.00  0.00    +0.029 A 
ATOM     34  C   UNL     1      93.683 140.356  64.465  0.00  0.00    +0.049 A 
ATOM     35  C   UNL     1      94.793 139.567  62.515  0.00  0.00    +0.156 A 
ATOM     36  C   UNL     1      93.622 139.967  63.141  0.00  0.00    +0.135 A 
BRANCH  36  37
ATOM     37  O   UNL     1      92.410 139.978  62.520  0.00  0.00    -0.505 OA
ATOM     38  H   UNL     1      91.760 140.403  63.104  0.00  0.00    +0.292 HD
ENDBRANCH  36  37
ENDBRANCH  30  32
BRANCH  30  39
ATOM     39  O   UNL     1      97.293 138.536  65.932  0.00  0.00    -0.385 OA
ATOM     40  H   UNL     1      98.140 138.475  66.415  0.00  0.00    +0.210 HD
ENDBRANCH  30  39
ENDBRANCH  28  30
ENDBRANCH  24  28
ENDBRANCH  22  24
ENDBRANCH   1  21
BRANCH   1  42
ATOM     41  OXT UNL     1      99.960 141.153  59.952  0.00  0.00    -0.249 OA
ATOM     42  C   UNL     1      99.173 140.330  59.496  0.00  0.00    +0.328 C 
BRANCH  42  43
ATOM     43  O   UNL     1      98.437 140.574  58.383  0.00  0.00    -0.479 OA
ATOM     44  H   UNL     1      98.802 141.302  57.828  0.00  0.00    +0.295 HD
ENDBRANCH  42  43
ENDBRANCH   1  42
TORSDOF 14
ENDMDL
MODEL 5
REMARK VINA RESULT:    -4.487      2.325      4.589
REMARK INTER + INTRA:         -10.784
REMARK INTER:                  -8.207
REMARK INTRA:                  -2.577
REMARK UNBOUND:                -3.412
REMARK  Name = 456557
REMARK  15 active torsions:
REMARK  status: ('A' for Active; 'I' for Inactive)
REMARK    1  A    between atoms: O_2  and  C_17
REMARK    2  A    between atoms: O_3  and  C_18
REMARK    3  A    between atoms: O_4  and  C_22
REMARK    4  A    between atoms: O_7  and  C_27
REMARK    5  A    between atoms: O_10  and  C_35
REMARK    6  A    between atoms: N_11  and  C_19
REMARK    7  A    between atoms: N_12  and  CA_20
REMARK    8  A    between atoms: N_13  and  CA_21
REMARK    9  A    between atoms: C_16  and  CA_20
REMARK   10  A    between atoms: CA_20  and  C_22
REMARK   11  A    between atoms: CA_21  and  C_23
REMARK   12  A    between atoms: CA_21  and  C_24
REMARK   13  A    between atoms: C_23  and  C_27
REMARK   14  A    between atoms: C_23  and  C_28
REMARK   15  A    between atoms: C_27  and  C_30
REMARK                            x       y       z     vdW  Elec       q    Type
REMARK                         _______ _______ _______ _____ _____    ______ ____
ROOT
ATOM      1  CA  UNL     1     100.643 136.228  59.180  0.00  0.00    +0.213 C 
ENDROOT
BRANCH   1   3
ATOM      2  O   UNL     1     100.764 138.554  59.997  0.00  0.00    -0.345 OA
ATOM      3  C   UNL     1     101.118 137.180  60.308  0.00  0.00    +0.183 C 
ATOM      4  C   UNL     1     100.494 136.906  61.683  0.00  0.00    +0.178 C 
ATOM      5  C   UNL     1      99.266 137.811  61.702  0.00  0.00    +0.195 C 
ATOM      6  C   UNL     1      99.845 139.040  60.992  0.00  0.00    +0.255 C 
BRANCH   6   9
ATOM      7  O   UNL     1      98.140 140.816  62.327  0.00  0.00    -0.246 OA
ATOM      8  O   UNL     1      95.715 141.642  58.685  0.00  0.00    -0.268 OA
ATOM      9  N   UNL     1      98.909 139.943  60.327  0.00  0.00    -0.271 N 
ATOM     10  N   UNL     1      97.200 141.535  60.405  0.00  0.00    -0.275 N 
ATOM     11  C   UNL     1      98.117 140.785  61.094  0.00  0.00    +0.331 A 
ATOM     12  C   UNL     1      98.692 139.789  58.971  0.00  0.00    +0.098 A 
ATOM     13  C   UNL     1      97.677 140.393  58.348  0.00  0.00    +0.088 A 
ATOM     14  C   UNL     1      96.784 141.250  59.139  0.00  0.00    +0.254 A 
ATOM     15  H   UNL     1      96.552 142.075  60.957  0.00  0.00    +0.173 HD
ENDBRANCH   6   9
BRANCH   4  16
ATOM     16  O   UNL     1     101.338 137.390  62.758  0.00  0.00    -0.386 OA
ATOM     17  H   UNL     1     102.229 137.563  62.398  0.00  0.00    +0.210 HD
ENDBRANCH   4  16
BRANCH   5  18
ATOM     18  O   UNL     1      98.855 138.081  63.047  0.00  0.00    -0.385 OA
ATOM     19  H   UNL     1      98.068 137.506  63.192  0.00  0.00    +0.210 HD
ENDBRANCH   5  18
ENDBRANCH   1   3
BRANCH   1  21
ATOM     20  O   UNL     1      98.442 136.747  57.387  0.00  0.00    -0.274 OA
ATOM     21  N   UNL     1      99.261 135.721  59.246  0.00  0.00    -0.299 N 
ATOM     22  C   UNL     1      98.237 136.157  58.441  0.00  0.00    +0.231 C 
ATOM     23  H   UNL     1      98.929 135.377  60.150  0.00  0.00    +0.150 HD
BRANCH  22  24
ATOM     24  CA  UNL     1      96.802 135.856  58.945  0.00  0.00    +0.143 C 
BRANCH  24  25
ATOM     25  N   UNL     1      96.909 135.102  60.228  0.00  0.00    -0.320 NA
ATOM     26  H1  UNL     1      96.919 135.763  61.005  0.00  0.00    +0.119 HD
ATOM     27  H2  UNL     1      96.050 134.565  60.355  0.00  0.00    +0.119 HD
ENDBRANCH  24  25
BRANCH  24  28
ATOM     28  C   UNL     1      95.953 137.144  59.104  0.00  0.00    +0.046 C 
ATOM     29  C   UNL     1      96.019 137.707  60.541  0.00  0.00    +0.012 C 
BRANCH  28  30
ATOM     30  C   UNL     1      94.481 137.008  58.604  0.00  0.00    +0.168 C 
BRANCH  30  32
ATOM     31  N   UNL     1      92.729 138.242  57.382  0.00  0.00    -0.254 NA
ATOM     32  C   UNL     1      94.044 137.903  57.449  0.00  0.00    +0.070 A 
ATOM     33  C   UNL     1      94.992 138.467  56.590  0.00  0.00    +0.029 A 
ATOM     34  C   UNL     1      94.583 139.361  55.604  0.00  0.00    +0.049 A 
ATOM     35  C   UNL     1      92.362 139.126  56.422  0.00  0.00    +0.156 A 
ATOM     36  C   UNL     1      93.247 139.706  55.527  0.00  0.00    +0.135 A 
BRANCH  36  37
ATOM     37  O   UNL     1      92.870 140.614  54.586  0.00  0.00    -0.505 OA
ATOM     38  H   UNL     1      93.120 140.283  53.708  0.00  0.00    +0.292 HD
ENDBRANCH  36  37
ENDBRANCH  30  32
BRANCH  30  39
ATOM     39  O   UNL     1      94.271 135.646  58.183  0.00  0.00    -0.385 OA
ATOM     40  H   UNL     1      93.393 135.642  57.754  0.00  0.00    +0.210 HD
ENDBRANCH  30  39
ENDBRANCH  28  30
ENDBRANCH  24  28
ENDBRANCH  22  24
ENDBRANCH   1  21
BRANCH   1  42
ATOM     41  OXT UNL     1     102.225 134.623  60.136  0.00  0.00    -0.249 OA
ATOM     42  C   UNL     1     101.577 135.006  59.168  0.00  0.00    +0.328 C 
BRANCH  42  43
ATOM     43  O   UNL     1     101.613 134.364  57.975  0.00  0.00    -0.479 OA
ATOM     44  H   UNL     1     100.977 133.613  57.918  0.00  0.00    +0.295 HD
ENDBRANCH  42  43
ENDBRANCH   1  42
TORSDOF 14
ENDMDL
MODEL 6
REMARK VINA RESULT:    -4.407      2.577      3.761
REMARK INTER + INTRA:         -10.653
REMARK INTER:                  -7.914
REMARK INTRA:                  -2.739
REMARK UNBOUND:                -3.412
REMARK  Name = 456557
REMARK  15 active torsions:
REMARK  status: ('A' for Active; 'I' for Inactive)
REMARK    1  A    between atoms: O_2  and  C_17
REMARK    2  A    between atoms: O_3  and  C_18
REMARK    3  A    between atoms: O_4  and  C_22
REMARK    4  A    between atoms: O_7  and  C_27
REMARK    5  A    between atoms: O_10  and  C_35
REMARK    6  A    between atoms: N_11  and  C_19
REMARK    7  A    between atoms: N_12  and  CA_20
REMARK    8  A    between atoms: N_13  and  CA_21
REMARK    9  A    between atoms: C_16  and  CA_20
REMARK   10  A    between atoms: CA_20  and  C_22
REMARK   11  A    between atoms: CA_21  and  C_23
REMARK   12  A    between atoms: CA_21  and  C_24
REMARK   13  A    between atoms: C_23  and  C_27
REMARK   14  A    between atoms: C_23  and  C_28
REMARK   15  A    between atoms: C_27  and  C_30
REMARK                            x       y       z     vdW  Elec       q    Type
REMARK                         _______ _______ _______ _____ _____    ______ ____
ROOT
ATOM      1  CA  UNL     1      95.521 137.723  58.598  0.00  0.00    +0.213 C 
ENDROOT
BRANCH   1   3
ATOM      2  O   UNL     1      97.144 136.208  59.677  0.00  0.00    -0.345 OA
ATOM      3  C   UNL     1      96.113 137.198  59.932  0.00  0.00    +0.183 C 
ATOM      4  C   UNL     1      96.792 138.269  60.798  0.00  0.00    +0.178 C 
ATOM      5  C   UNL     1      98.250 138.213  60.354  0.00  0.00    +0.195 C 
ATOM      6  C   UNL     1      98.403 136.699  60.173  0.00  0.00    +0.255 C 
BRANCH   6   9
ATOM      7  O   UNL     1     101.085 136.361  60.902  0.00  0.00    -0.246 OA
ATOM      8  O   UNL     1     102.452 135.927  56.687  0.00  0.00    -0.268 OA
ATOM      9  N   UNL     1      99.449 136.225  59.271  0.00  0.00    -0.271 N 
ATOM     10  N   UNL     1     101.689 135.731  58.821  0.00  0.00    -0.275 N 
ATOM     11  C   UNL     1     100.746 136.091  59.747  0.00  0.00    +0.331 A 
ATOM     12  C   UNL     1      99.165 136.122  57.924  0.00  0.00    +0.098 A 
ATOM     13  C   UNL     1     100.125 135.948  57.012  0.00  0.00    +0.088 A 
ATOM     14  C   UNL     1     101.516 135.855  57.474  0.00  0.00    +0.254 A 
ATOM     15  H   UNL     1     102.648 135.726  59.130  0.00  0.00    +0.173 HD
ENDBRANCH   6   9
BRANCH   4  16
ATOM     16  O   UNL     1      96.806 137.892  62.198  0.00  0.00    -0.386 OA
ATOM     17  H   UNL     1      97.041 138.678  62.727  0.00  0.00    +0.210 HD
ENDBRANCH   4  16
BRANCH   5  18
ATOM     18  O   UNL     1      99.109 138.747  61.367  0.00  0.00    -0.385 OA
ATOM     19  H   UNL     1      99.175 139.710  61.162  0.00  0.00    +0.210 HD
ENDBRANCH   5  18
ENDBRANCH   1   3
BRANCH   1  21
ATOM     20  O   UNL     1      94.807 140.459  58.022  0.00  0.00    -0.274 OA
ATOM     21  N   UNL     1      94.191 138.357  58.639  0.00  0.00    -0.299 N 
ATOM     22  C   UNL     1      93.972 139.706  58.511  0.00  0.00    +0.231 C 
ATOM     23  H   UNL     1      93.466 137.892  59.191  0.00  0.00    +0.150 HD
BRANCH  22  24
ATOM     24  CA  UNL     1      92.603 140.223  59.023  0.00  0.00    +0.143 C 
BRANCH  24  25
ATOM     25  N   UNL     1      91.575 139.183  58.730  0.00  0.00    -0.320 NA
ATOM     26  H1  UNL     1      90.647 139.605  58.781  0.00  0.00    +0.119 HD
ATOM     27  H2  UNL     1      91.678 138.897  57.755  0.00  0.00    +0.119 HD
ENDBRANCH  24  25
BRANCH  24  28
ATOM     28  C   UNL     1      92.639 140.588  60.530  0.00  0.00    +0.046 C 
ATOM     29  C   UNL     1      93.258 141.982  60.774  0.00  0.00    +0.012 C 
BRANCH  28  30
ATOM     30  C   UNL     1      93.292 139.499  61.438  0.00  0.00    +0.168 C 
BRANCH  30  32
ATOM     31  N   UNL     1      94.684 139.961  63.420  0.00  0.00    -0.254 NA
ATOM     32  C   UNL     1      93.427 139.811  62.924  0.00  0.00    +0.070 A 
ATOM     33  C   UNL     1      92.296 140.077  63.700  0.00  0.00    +0.029 A 
ATOM     34  C   UNL     1      92.446 140.457  65.030  0.00  0.00    +0.049 A 
ATOM     35  C   UNL     1      94.800 140.347  64.715  0.00  0.00    +0.156 A 
ATOM     36  C   UNL     1      93.720 140.607  65.544  0.00  0.00    +0.135 A 
BRANCH  36  37
ATOM     37  O   UNL     1      93.851 141.022  66.833  0.00  0.00    -0.505 OA
ATOM     38  H   UNL     1      93.817 141.992  66.859  0.00  0.00    +0.292 HD
ENDBRANCH  36  37
ENDBRANCH  30  32
BRANCH  30  39
ATOM     39  O   UNL     1      92.512 138.293  61.329  0.00  0.00    -0.385 OA
ATOM     40  H   UNL     1      92.842 137.708  62.039  0.00  0.00    +0.210 HD
ENDBRANCH  30  39
ENDBRANCH  28  30
ENDBRANCH  24  28
ENDBRANCH  22  24
ENDBRANCH   1  21
BRANCH   1  42
ATOM     41  OXT UNL     1      95.939 136.523  56.506  0.00  0.00    -0.249 OA
ATOM     42  C   UNL     1      95.433 136.538  57.623  0.00  0.00    +0.328 C 
BRANCH  42  43
ATOM     43  O   UNL     1      94.746 135.479  58.119  0.00  0.00    -0.479 OA
ATOM     44  H   UNL     1      95.257 134.962  58.785  0.00  0.00    +0.295 HD
ENDBRANCH  42  43
ENDBRANCH   1  42
TORSDOF 14
ENDMDL
MODEL 7
REMARK VINA RESULT:    -4.354      2.184      5.472
REMARK INTER + INTRA:         -10.565
REMARK INTER:                  -8.221
REMARK INTRA:                  -2.343
REMARK UNBOUND:                -3.412
REMARK  Name = 456557
REMARK  15 active torsions:
REMARK  status: ('A' for Active; 'I' for Inactive)
REMARK    1  A    between atoms: O_2  and  C_17
REMARK    2  A    between atoms: O_3  and  C_18
REMARK    3  A    between atoms: O_4  and  C_22
REMARK    4  A    between atoms: O_7  and  C_27
REMARK    5  A    between atoms: O_10  and  C_35
REMARK    6  A    between atoms: N_11  and  C_19
REMARK    7  A    between atoms: N_12  and  CA_20
REMARK    8  A    between atoms: N_13  and  CA_21
REMARK    9  A    between atoms: C_16  and  CA_20
REMARK   10  A    between atoms: CA_20  and  C_22
REMARK   11  A    between atoms: CA_21  and  C_23
REMARK   12  A    between atoms: CA_21  and  C_24
REMARK   13  A    between atoms: C_23  and  C_27
REMARK   14  A    between atoms: C_23  and  C_28
REMARK   15  A    between atoms: C_27  and  C_30
REMARK                            x       y       z     vdW  Elec       q    Type
REMARK                         _______ _______ _______ _____ _____    ______ ____
ROOT
ATOM      1  CA  UNL     1      93.406 138.086  58.910  0.00  0.00    +0.213 C 
ENDROOT
BRANCH   1   3
ATOM      2  O   UNL     1      93.038 138.907  61.209  0.00  0.00    -0.345 OA
ATOM      3  C   UNL     1      92.725 139.149  59.811  0.00  0.00    +0.183 C 
ATOM      4  C   UNL     1      93.171 140.594  59.545  0.00  0.00    +0.178 C 
ATOM      5  C   UNL     1      94.329 140.794  60.517  0.00  0.00    +0.195 C 
ATOM      6  C   UNL     1      93.782 140.026  61.726  0.00  0.00    +0.255 C 
BRANCH   6   9
ATOM      7  O   UNL     1      93.986 140.899  64.378  0.00  0.00    -0.246 OA
ATOM      8  O   UNL     1      97.908 138.891  65.017  0.00  0.00    -0.268 OA
ATOM      9  N   UNL     1      94.745 139.507  62.693  0.00  0.00    -0.271 N 
ATOM     10  N   UNL     1      95.739 139.545  64.808  0.00  0.00    -0.275 N 
ATOM     11  C   UNL     1      94.749 140.013  63.985  0.00  0.00    +0.331 A 
ATOM     12  C   UNL     1      95.756 138.680  62.243  0.00  0.00    +0.098 A 
ATOM     13  C   UNL     1      96.810 138.377  63.005  0.00  0.00    +0.088 A 
ATOM     14  C   UNL     1      96.875 138.939  64.360  0.00  0.00    +0.254 A 
ATOM     15  H   UNL     1      95.815 139.976  65.716  0.00  0.00    +0.173 HD
ENDBRANCH   6   9
BRANCH   4  16
ATOM     16  O   UNL     1      92.160 141.548  59.958  0.00  0.00    -0.386 OA
ATOM     17  H   UNL     1      92.169 142.298  59.333  0.00  0.00    +0.210 HD
ENDBRANCH   4  16
BRANCH   5  18
ATOM     18  O   UNL     1      94.535 142.185  60.783  0.00  0.00    -0.385 OA
ATOM     19  H   UNL     1      95.122 142.207  61.575  0.00  0.00    +0.210 HD
ENDBRANCH   5  18
ENDBRANCH   1   3
BRANCH   1  21
ATOM     20  O   UNL     1      94.998 135.820  58.098  0.00  0.00    -0.274 OA
ATOM     21  N   UNL     1      94.854 137.869  59.078  0.00  0.00    -0.299 N 
ATOM     22  C   UNL     1      95.496 136.685  58.809  0.00  0.00    +0.231 C 
ATOM     23  H   UNL     1      95.332 138.419  59.796  0.00  0.00    +0.150 HD
BRANCH  22  24
ATOM     24  CA  UNL     1      96.892 136.507  59.459  0.00  0.00    +0.143 C 
BRANCH  24  25
ATOM     25  N   UNL     1      96.928 135.171  60.124  0.00  0.00    -0.320 NA
ATOM     26  H1  UNL     1      96.252 135.159  60.889  0.00  0.00    +0.119 HD
ATOM     27  H2  UNL     1      96.582 134.475  59.461  0.00  0.00    +0.119 HD
ENDBRANCH  24  25
BRANCH  24  28
ATOM     28  C   UNL     1      98.043 136.669  58.433  0.00  0.00    +0.046 C 
ATOM     29  C   UNL     1      97.958 135.627  57.296  0.00  0.00    +0.012 C 
BRANCH  28  30
ATOM     30  C   UNL     1      99.468 136.714  59.070  0.00  0.00    +0.168 C 
BRANCH  30  32
ATOM     31  N   UNL     1     100.074 136.950  61.449  0.00  0.00    -0.254 NA
ATOM     32  C   UNL     1      99.655 137.573  60.316  0.00  0.00    +0.070 A 
ATOM     33  C   UNL     1      99.542 138.964  60.242  0.00  0.00    +0.029 A 
ATOM     34  C   UNL     1      99.814 139.738  61.367  0.00  0.00    +0.049 A 
ATOM     35  C   UNL     1     100.346 137.730  62.524  0.00  0.00    +0.156 A 
ATOM     36  C   UNL     1     100.236 139.112  62.524  0.00  0.00    +0.135 A 
BRANCH  36  37
ATOM     37  O   UNL     1     100.540 139.886  63.602  0.00  0.00    -0.505 OA
ATOM     38  H   UNL     1     101.169 139.408  64.167  0.00  0.00    +0.292 HD
ENDBRANCH  36  37
ENDBRANCH  30  32
BRANCH  30  39
ATOM     39  O   UNL     1      99.846 135.370  59.425  0.00  0.00    -0.385 OA
ATOM     40  H   UNL     1     100.792 135.424  59.665  0.00  0.00    +0.210 HD
ENDBRANCH  30  39
ENDBRANCH  28  30
ENDBRANCH  24  28
ENDBRANCH  22  24
ENDBRANCH   1  21
BRANCH   1  42
ATOM     41  OXT UNL     1      93.987 139.090  56.755  0.00  0.00    -0.249 OA
ATOM     42  C   UNL     1      93.171 138.488  57.445  0.00  0.00    +0.328 C 
BRANCH  42  43
ATOM     43  O   UNL     1      91.965 138.099  56.964  0.00  0.00    -0.479 OA
ATOM     44  H   UNL     1      91.513 137.436  57.537  0.00  0.00    +0.295 HD
ENDBRANCH  42  43
ENDBRANCH   1  42
TORSDOF 14
ENDMDL
MODEL 8
REMARK VINA RESULT:    -4.318      2.341      4.803
REMARK INTER + INTRA:         -10.506
REMARK INTER:                  -7.756
REMARK INTRA:                  -2.750
REMARK UNBOUND:                -3.412
REMARK  Name = 456557
REMARK  15 active torsions:
REMARK  status: ('A' for Active; 'I' for Inactive)
REMARK    1  A    between atoms: O_2  and  C_17
REMARK    2  A    between atoms: O_3  and  C_18
REMARK    3  A    between atoms: O_4  and  C_22
REMARK    4  A    between atoms: O_7  and  C_27
REMARK    5  A    between atoms: O_10  and  C_35
REMARK    6  A    between atoms: N_11  and  C_19
REMARK    7  A    between atoms: N_12  and  CA_20
REMARK    8  A    between atoms: N_13  and  CA_21
REMARK    9  A    between atoms: C_16  and  CA_20
REMARK   10  A    between atoms: CA_20  and  C_22
REMARK   11  A    between atoms: CA_21  and  C_23
REMARK   12  A    between atoms: CA_21  and  C_24
REMARK   13  A    between atoms: C_23  and  C_27
REMARK   14  A    between atoms: C_23  and  C_28
REMARK   15  A    between atoms: C_27  and  C_30
REMARK                            x       y       z     vdW  Elec       q    Type
REMARK                         _______ _______ _______ _____ _____    ______ ____
ROOT
ATOM      1  CA  UNL     1     100.161 134.913  57.885  0.00  0.00    +0.213 C 
ENDROOT
BRANCH   1   3
ATOM      2  O   UNL     1      97.925 135.720  58.549  0.00  0.00    -0.345 OA
ATOM      3  C   UNL     1      98.627 134.742  57.737  0.00  0.00    +0.183 C 
ATOM      4  C   UNL     1      98.092 134.947  56.312  0.00  0.00    +0.178 C 
ATOM      5  C   UNL     1      97.736 136.429  56.276  0.00  0.00    +0.195 C 
ATOM      6  C   UNL     1      97.162 136.587  57.689  0.00  0.00    +0.255 C 
BRANCH   6   9
ATOM      7  O   UNL     1      95.387 137.454  59.673  0.00  0.00    -0.246 OA
ATOM      8  O   UNL     1      96.513 141.734  59.186  0.00  0.00    -0.268 OA
ATOM      9  N   UNL     1      97.175 137.922  58.282  0.00  0.00    -0.271 N 
ATOM     10  N   UNL     1      96.262 139.533  59.706  0.00  0.00    -0.275 N 
ATOM     11  C   UNL     1      96.248 138.236  59.265  0.00  0.00    +0.331 A 
ATOM     12  C   UNL     1      97.970 138.894  57.707  0.00  0.00    +0.098 A 
ATOM     13  C   UNL     1      97.845 140.185  58.024  0.00  0.00    +0.088 A 
ATOM     14  C   UNL     1      96.835 140.563  59.021  0.00  0.00    +0.254 A 
ATOM     15  H   UNL     1      95.530 139.801  60.346  0.00  0.00    +0.173 HD
ENDBRANCH   6   9
BRANCH   4  16
ATOM     16  O   UNL     1      96.838 134.249  56.108  0.00  0.00    -0.386 OA
ATOM     17  H   UNL     1      96.601 133.789  56.935  0.00  0.00    +0.210 HD
ENDBRANCH   4  16
BRANCH   5  18
ATOM     18  O   UNL     1      96.776 136.695  55.248  0.00  0.00    -0.385 OA
ATOM     19  H   UNL     1      95.899 136.585  55.685  0.00  0.00    +0.210 HD
ENDBRANCH   5  18
ENDBRANCH   1   3
BRANCH   1  21
ATOM     20  O   UNL     1     102.103 135.633  59.894  0.00  0.00    -0.274 OA
ATOM     21  N   UNL     1     100.672 136.250  58.236  0.00  0.00    -0.299 N 
ATOM     22  C   UNL     1     101.472 136.513  59.320  0.00  0.00    +0.231 C 
ATOM     23  H   UNL     1     100.105 137.057  57.961  0.00  0.00    +0.150 HD
BRANCH  22  24
ATOM     24  CA  UNL     1     101.530 137.993  59.778  0.00  0.00    +0.143 C 
BRANCH  24  25
ATOM     25  N   UNL     1     101.896 138.830  58.598  0.00  0.00    -0.320 NA
ATOM     26  H1  UNL     1     102.409 139.653  58.917  0.00  0.00    +0.119 HD
ATOM     27  H2  UNL     1     102.567 138.308  58.032  0.00  0.00    +0.119 HD
ENDBRANCH  24  25
BRANCH  24  28
ATOM     28  C   UNL     1     100.200 138.461  60.424  0.00  0.00    +0.046 C 
ATOM     29  C   UNL     1     100.264 139.935  60.880  0.00  0.00    +0.012 C 
BRANCH  28  30
ATOM     30  C   UNL     1      99.676 137.527  61.560  0.00  0.00    +0.168 C 
BRANCH  30  32
ATOM     31  N   UNL     1      97.531 138.424  62.383  0.00  0.00    -0.254 NA
ATOM     32  C   UNL     1      98.836 138.164  62.662  0.00  0.00    +0.070 A 
ATOM     33  C   UNL     1      99.358 138.329  63.947  0.00  0.00    +0.029 A 
ATOM     34  C   UNL     1      98.544 138.820  64.964  0.00  0.00    +0.049 A 
ATOM     35  C   UNL     1      96.757 138.886  63.396  0.00  0.00    +0.156 A 
ATOM     36  C   UNL     1      97.217 139.090  64.687  0.00  0.00    +0.135 A 
BRANCH  36  37
ATOM     37  O   UNL     1      96.423 139.528  65.703  0.00  0.00    -0.505 OA
ATOM     38  H   UNL     1      95.619 138.984  65.733  0.00  0.00    +0.292 HD
ENDBRANCH  36  37
ENDBRANCH  30  32
BRANCH  30  39
ATOM     39  O   UNL     1      98.872 136.494  60.960  0.00  0.00    -0.385 OA
ATOM     40  H   UNL     1      99.495 135.770  60.754  0.00  0.00    +0.210 HD
ENDBRANCH  30  39
ENDBRANCH  28  30
ENDBRANCH  24  28
ENDBRANCH  22  24
ENDBRANCH   1  21
BRANCH   1  42
ATOM     41  OXT UNL     1     101.210 135.308  55.709  0.00  0.00    -0.249 OA
ATOM     42  C   UNL     1     100.811 134.511  56.551  0.00  0.00    +0.328 C 
BRANCH  42  43
ATOM     43  O   UNL     1     100.924 133.170  56.386  0.00  0.00    -0.479 OA
ATOM     44  H   UNL     1     100.815 132.665  57.226  0.00  0.00    +0.295 HD
ENDBRANCH  42  43
ENDBRANCH   1  42
TORSDOF 14
ENDMDL
MODEL 9
REMARK VINA RESULT:    -4.312      2.298      6.085
REMARK INTER + INTRA:         -10.496
REMARK INTER:                  -7.296
REMARK INTRA:                  -3.200
REMARK UNBOUND:                -3.412
REMARK  Name = 456557
REMARK  15 active torsions:
REMARK  status: ('A' for Active; 'I' for Inactive)
REMARK    1  A    between atoms: O_2  and  C_17
REMARK    2  A    between atoms: O_3  and  C_18
REMARK    3  A    between atoms: O_4  and  C_22
REMARK    4  A    between atoms: O_7  and  C_27
REMARK    5  A    between atoms: O_10  and  C_35
REMARK    6  A    between atoms: N_11  and  C_19
REMARK    7  A    between atoms: N_12  and  CA_20
REMARK    8  A    between atoms: N_13  and  CA_21
REMARK    9  A    between atoms: C_16  and  CA_20
REMARK   10  A    between atoms: CA_20  and  C_22
REMARK   11  A    between atoms: CA_21  and  C_23
REMARK   12  A    between atoms: CA_21  and  C_24
REMARK   13  A    between atoms: C_23  and  C_27
REMARK   14  A    between atoms: C_23  and  C_28
REMARK   15  A    between atoms: C_27  and  C_30
REMARK                            x       y       z     vdW  Elec       q    Type
REMARK                         _______ _______ _______ _____ _____    ______ ____
ROOT
ATOM      1  CA  UNL     1      98.635 138.227  60.148  0.00  0.00    +0.213 C 
ENDROOT
BRANCH   1   3
ATOM      2  O   UNL     1      96.222 137.999  60.618  0.00  0.00    -0.345 OA
ATOM      3  C   UNL     1      97.487 137.285  60.595  0.00  0.00    +0.183 C 
ATOM      4  C   UNL     1      97.250 136.080  59.674  0.00  0.00    +0.178 C 
ATOM      5  C   UNL     1      96.194 136.583  58.695  0.00  0.00    +0.195 C 
ATOM      6  C   UNL     1      95.330 137.409  59.655  0.00  0.00    +0.255 C 
BRANCH   6   9
ATOM      7  O   UNL     1      92.902 137.018  58.316  0.00  0.00    -0.246 OA
ATOM      8  O   UNL     1      92.822 141.165  56.697  0.00  0.00    -0.268 OA
ATOM      9  N   UNL     1      94.519 138.483  59.086  0.00  0.00    -0.271 N 
ATOM     10  N   UNL     1      92.670 139.216  57.861  0.00  0.00    -0.275 N 
ATOM     11  C   UNL     1      93.328 138.168  58.449  0.00  0.00    +0.331 A 
ATOM     12  C   UNL     1      95.058 139.753  59.017  0.00  0.00    +0.098 A 
ATOM     13  C   UNL     1      94.493 140.718  58.288  0.00  0.00    +0.088 A 
ATOM     14  C   UNL     1      93.258 140.407  57.555  0.00  0.00    +0.254 A 
ATOM     15  H   UNL     1      91.856 138.988  57.311  0.00  0.00    +0.173 HD
ENDBRANCH   6   9
BRANCH   4  16
ATOM     16  O   UNL     1      96.619 134.984  60.382  0.00  0.00    -0.386 OA
ATOM     17  H   UNL     1      96.872 134.148  59.946  0.00  0.00    +0.210 HD
ENDBRANCH   4  16
BRANCH   5  18
ATOM     18  O   UNL     1      95.487 135.488  58.104  0.00  0.00    -0.385 OA
ATOM     19  H   UNL     1      96.185 134.833  57.868  0.00  0.00    +0.210 HD
ENDBRANCH   5  18
ENDBRANCH   1   3
BRANCH   1  21
ATOM     20  O   UNL     1      98.813 140.924  59.136  0.00  0.00    -0.274 OA
ATOM     21  N   UNL     1      98.637 138.689  58.748  0.00  0.00    -0.299 N 
ATOM     22  C   UNL     1      98.557 140.006  58.366  0.00  0.00    +0.231 C 
ATOM     23  H   UNL     1      98.258 138.053  58.042  0.00  0.00    +0.150 HD
BRANCH  22  24
ATOM     24  CA  UNL     1      98.123 140.263  56.900  0.00  0.00    +0.143 C 
BRANCH  24  25
ATOM     25  N   UNL     1      98.223 141.728  56.637  0.00  0.00    -0.320 NA
ATOM     26  H1  UNL     1      97.552 142.221  57.227  0.00  0.00    +0.119 HD
ATOM     27  H2  UNL     1      99.137 142.049  56.958  0.00  0.00    +0.119 HD
ENDBRANCH  24  25
BRANCH  24  28
ATOM     28  C   UNL     1      98.959 139.438  55.887  0.00  0.00    +0.046 C 
ATOM     29  C   UNL     1      99.708 140.342  54.883  0.00  0.00    +0.012 C 
BRANCH  28  30
ATOM     30  C   UNL     1      98.158 138.310  55.163  0.00  0.00    +0.168 C 
BRANCH  30  32
ATOM     31  N   UNL     1      99.349 136.668  56.565  0.00  0.00    -0.254 NA
ATOM     32  C   UNL     1      98.385 136.876  55.630  0.00  0.00    +0.070 A 
ATOM     33  C   UNL     1      97.530 135.851  55.216  0.00  0.00    +0.029 A 
ATOM     34  C   UNL     1      97.693 134.568  55.730  0.00  0.00    +0.049 A 
ATOM     35  C   UNL     1      99.476 135.411  57.060  0.00  0.00    +0.156 A 
ATOM     36  C   UNL     1      98.674 134.347  56.678  0.00  0.00    +0.135 A 
BRANCH  36  37
ATOM     37  O   UNL     1      98.793 133.097  57.203  0.00  0.00    -0.505 OA
ATOM     38  H   UNL     1      99.368 132.565  56.629  0.00  0.00    +0.292 HD
ENDBRANCH  36  37
ENDBRANCH  30  32
BRANCH  30  39
ATOM     39  O   UNL     1      96.752 138.585  55.316  0.00  0.00    -0.385 OA
ATOM     40  H   UNL     1      96.331 137.712  55.439  0.00  0.00    +0.210 HD
ENDBRANCH  30  39
ENDBRANCH  28  30
ENDBRANCH  24  28
ENDBRANCH  22  24
ENDBRANCH   1  21
BRANCH   1  42
ATOM     41  OXT UNL     1     100.249 136.903  61.425  0.00  0.00    -0.249 OA
ATOM     42  C   UNL     1      99.966 137.498  60.391  0.00  0.00    +0.328 C 
BRANCH  42  43
ATOM     43  O   UNL     1     100.814 137.555  59.335  0.00  0.00    -0.479 OA
ATOM     44  H   UNL     1     101.256 138.431  59.238  0.00  0.00    +0.295 HD
ENDBRANCH  42  43
ENDBRANCH   1  42
TORSDOF 14
ENDMDL
