REMARK  Name = 
REMARK  13 active torsions:
REMARK  status: ('A' for Active; 'I' for Inactive)
REMARK    1  A    between atoms: C_3  and  N_33
REMARK    2  A    between atoms: C_6  and  O_8
REMARK    3  A    between atoms: O_8  and  C_9
REMARK    4  A    between atoms: C_10  and  C_29
REMARK    5  A    between atoms: C_12  and  O_17
REMARK    6  A    between atoms: O_17  and  C_18
REMARK    7  A    between atoms: C_18  and  C_19
REMARK    8  A    between atoms: C_18  and  C_23
REMARK    9  A    between atoms: C_19  and  C_20
REMARK   10  A    between atoms: C_23  and  C_24
REMARK   11  A    between atoms: C_24  and  C_25
REMARK   12  A    between atoms: N_33  and  C_34
REMARK   13  A    between atoms: C_36  and  C_43
REMARK                            x       y       z     vdW  Elec       q    Type
REMARK                         _______ _______ _______ _____ _____    ______ ____
ROOT
ATOM      1  O   UNL     1       0.000   0.000   0.000  0.00  0.00    -0.326 OA
ENDROOT
BRANCH   1   7
ATOM      2  C   UNL     1       0.000   0.000   0.000  0.00  0.00    +0.034 C 
ATOM      3  C   UNL     1       0.000   0.000   0.000  0.00  0.00    +0.136 C 
ATOM      4  C   UNL     1       0.000   0.000   0.000  0.00  0.00    +0.133 C 
ATOM      5  C   UNL     1       0.000   0.000   0.000  0.00  0.00    +0.205 C 
ATOM      6  C   UNL     1       0.000   0.000   0.000  0.00  0.00    +0.239 C 
ATOM      7  C   UNL     1       0.000   0.000   0.000  0.00  0.00    +0.269 C 
ATOM      8  O   UNL     1       0.000   0.000   0.000  0.00  0.00    -0.330 OA
ATOM      9  O   UNL     1       0.000   0.000   0.000  0.00  0.00    -0.215 OA
ATOM     10  O   UNL     1       0.000   0.000   0.000  0.00  0.00    -0.219 OA
BRANCH   4  11
ATOM     11  N   UNL     1       0.000   0.000   0.000  0.00  0.00    -0.209 NA
BRANCH  11  12
ATOM     12  C   UNL     1       0.000   0.000   0.000  0.00  0.00    +0.127 C 
ATOM     13  C   UNL     1       0.000   0.000   0.000  0.00  0.00    -0.010 C 
ATOM     14  C   UNL     1       0.000   0.000   0.000  0.00  0.00    +0.018 C 
ATOM     15  C   UNL     1       0.000   0.000   0.000  0.00  0.00    +0.205 C 
ATOM     16  C   UNL     1       0.000   0.000   0.000  0.00  0.00    +0.218 C 
ATOM     17  C   UNL     1       0.000   0.000   0.000  0.00  0.00    +0.205 C 
ATOM     18  O   UNL     1       0.000   0.000   0.000  0.00  0.00    -0.218 OA
ATOM     19  O   UNL     1       0.000   0.000   0.000  0.00  0.00    -0.217 OA
ATOM     20  O   UNL     1       0.000   0.000   0.000  0.00  0.00    -0.216 OA
BRANCH  14  21
ATOM     21  C   UNL     1       0.000   0.000   0.000  0.00  0.00    +0.207 C 
ATOM     22  O   UNL     1       0.000   0.000   0.000  0.00  0.00    -0.215 OA
ENDBRANCH  14  21
ENDBRANCH  11  12
ENDBRANCH   4  11
ENDBRANCH   1   7
BRANCH   1  23
ATOM     23  C   UNL     1       0.000   0.000   0.000  0.00  0.00    +0.180 C 
ATOM     24  C   UNL     1       0.000   0.000   0.000  0.00  0.00    +0.180 C 
ATOM     25  O   UNL     1       0.000   0.000   0.000  0.00  0.00    -0.326 OA
ATOM     26  C   UNL     1       0.000   0.000   0.000  0.00  0.00    +0.270 C 
ATOM     27  C   UNL     1       0.000   0.000   0.000  0.00  0.00    +0.240 C 
ATOM     28  C   UNL     1       0.000   0.000   0.000  0.00  0.00    +0.217 C 
ATOM     29  O   UNL     1       0.000   0.000   0.000  0.00  0.00    -0.218 OA
ATOM     30  O   UNL     1       0.000   0.000   0.000  0.00  0.00    -0.215 OA
BRANCH  24  31
ATOM     31  C   UNL     1       0.000   0.000   0.000  0.00  0.00    +0.214 C 
ATOM     32  O   UNL     1       0.000   0.000   0.000  0.00  0.00    -0.218 OA
ENDBRANCH  24  31
BRANCH  26  33
ATOM     33  O   UNL     1       0.000   0.000   0.000  0.00  0.00    -0.326 OA
BRANCH  33  34
ATOM     34  C   UNL     1       0.000   0.000   0.000  0.00  0.00    +0.184 C 
BRANCH  34  35
ATOM     35  C   UNL     1       0.000   0.000   0.000  0.00  0.00    +0.214 C 
ATOM     36  O   UNL     1       0.000   0.000   0.000  0.00  0.00    -0.218 OA
BRANCH  35  37
ATOM     37  C   UNL     1       0.000   0.000   0.000  0.00  0.00    +0.217 C 
ATOM     38  O   UNL     1       0.000   0.000   0.000  0.00  0.00    -0.217 OA
ENDBRANCH  35  37
ENDBRANCH  34  35
BRANCH  34  39
ATOM     39  C   UNL     1       0.000   0.000   0.000  0.00  0.00    +0.219 C 
ATOM     40  O   UNL     1       0.000   0.000   0.000  0.00  0.00    -0.217 OA
BRANCH  39  41
ATOM     41  C   UNL     1       0.000   0.000   0.000  0.00  0.00    +0.248 C 
ATOM     42  O   UNL     1       0.000   0.000   0.000  0.00  0.00    -0.212 OA
BRANCH  41  43
ATOM     43  C   UNL     1       0.000   0.000   0.000  0.00  0.00    +0.243 C 
ATOM     44  O   UNL     1       0.000   0.000   0.000  0.00  0.00    -0.285 OA
ENDBRANCH  41  43
ENDBRANCH  39  41
ENDBRANCH  34  39
ENDBRANCH  33  34
ENDBRANCH  26  33
ENDBRANCH   1  23
TORSDOF 13
