REMARK  Name = 
REMARK  14 active torsions:
REMARK  status: ('A' for Active; 'I' for Inactive)
REMARK    1  A    between atoms: C_2  and  C_3
REMARK    2  A    between atoms: C_3  and  C_4
REMARK    3  A    between atoms: C_4  and  C_5
REMARK    4  A    between atoms: C_5  and  O_6
REMARK    5  A    between atoms: O_6  and  C_7
REMARK    6  A    between atoms: C_10  and  C_13
REMARK    7  A    between atoms: C_16  and  C_19
REMARK    8  A    between atoms: C_22  and  C_25
REMARK    9  A    between atoms: N_27  and  C_28
REMARK   10  A    between atoms: C_42  and  C_76
REMARK   11  A    between atoms: C_46  and  C_65
REMARK   12  A    between atoms: C_57  and  C_61
REMARK   13  A    between atoms: C_65  and  C_66
REMARK   14  A    between atoms: C_66  and  C_67
REMARK                            x       y       z     vdW  Elec       q    Type
REMARK                         _______ _______ _______ _____ _____    ______ ____
ROOT
ATOM      1  C   UNL     1       0.000   0.000   0.000  0.00  0.00    +0.176 C 
ATOM      2  C   UNL     1       0.000   0.000   0.000  0.00  0.00    +0.069 C 
ATOM      3  C   UNL     1       0.000   0.000   0.000  0.00  0.00    +0.205 C 
ATOM      4  C   UNL     1       0.000   0.000   0.000  0.00  0.00    +0.277 C 
ATOM      5  N   UNL     1       0.000   0.000   0.000  0.00  0.00    -0.171 NA
ATOM      6  C   UNL     1       0.000   0.000   0.000  0.00  0.00    +0.264 C 
ATOM      7  O   UNL     1       0.000   0.000   0.000  0.00  0.00    -0.271 OA
ATOM      8  C   UNL     1       0.000   0.000   0.000  0.00  0.00    +0.184 C 
ATOM      9  C   UNL     1       0.000   0.000   0.000  0.00  0.00    +0.181 C 
ATOM     10  C   UNL     1       0.000   0.000   0.000  0.00  0.00    +0.052 C 
ATOM     11  C   UNL     1       0.000   0.000   0.000  0.00  0.00    +0.096 C 
ATOM     12  N   UNL     1       0.000   0.000   0.000  0.00  0.00    -0.269 N 
ATOM     13  C   UNL     1       0.000   0.000   0.000  0.00  0.00    +0.248 C 
ATOM     14  O   UNL     1       0.000   0.000   0.000  0.00  0.00    -0.273 OA
ATOM     15  C   UNL     1       0.000   0.000   0.000  0.00  0.00    +0.201 C 
ATOM     16  N   UNL     1       0.000   0.000   0.000  0.00  0.00    -0.194 NA
ATOM     17  C   UNL     1       0.000   0.000   0.000  0.00  0.00    +0.264 C 
ATOM     18  O   UNL     1       0.000   0.000   0.000  0.00  0.00    -0.271 OA
ATOM     19  C   UNL     1       0.000   0.000   0.000  0.00  0.00    +0.206 C 
ATOM     20  N   UNL     1       0.000   0.000   0.000  0.00  0.00    -0.194 NA
ATOM     21  C   UNL     1       0.000   0.000   0.000  0.00  0.00    +0.260 C 
ATOM     22  O   UNL     1       0.000   0.000   0.000  0.00  0.00    -0.272 OA
ATOM     23  C   UNL     1       0.000   0.000   0.000  0.00  0.00    +0.156 C 
ATOM     24  C   UNL     1       0.000   0.000   0.000  0.00  0.00    +0.064 C 
ATOM     25  C   UNL     1       0.000   0.000   0.000  0.00  0.00    +0.174 C 
ATOM     26  C   UNL     1       0.000   0.000   0.000  0.00  0.00    +0.127 C 
ATOM     27  N   UNL     1       0.000   0.000   0.000  0.00  0.00    -0.269 N 
ATOM     28  C   UNL     1       0.000   0.000   0.000  0.00  0.00    +0.248 C 
ATOM     29  O   UNL     1       0.000   0.000   0.000  0.00  0.00    -0.273 OA
ATOM     30  C   UNL     1       0.000   0.000   0.000  0.00  0.00    +0.201 C 
ATOM     31  N   UNL     1       0.000   0.000   0.000  0.00  0.00    -0.194 NA
ATOM     32  C   UNL     1       0.000   0.000   0.000  0.00  0.00    +0.262 C 
ATOM     33  O   UNL     1       0.000   0.000   0.000  0.00  0.00    -0.271 OA
ATOM     34  O   UNL     1       0.000   0.000   0.000  0.00  0.00    -0.221 OA
ATOM     35  C   UNL     1       0.000   0.000   0.000  0.00  0.00    +0.004 C 
ATOM     36  O   UNL     1       0.000   0.000   0.000  0.00  0.00    -0.221 OA
ATOM     37  O   UNL     1       0.000   0.000   0.000  0.00  0.00    -0.196 OA
ATOM     38  O   UNL     1       0.000   0.000   0.000  0.00  0.00    -0.218 OA
ENDROOT
BRANCH   1  41
ATOM     39  C   UNL     1       0.000   0.000   0.000  0.00  0.00    +0.265 C 
ATOM     40  O   UNL     1       0.000   0.000   0.000  0.00  0.00    -0.268 OA
ATOM     41  N   UNL     1       0.000   0.000   0.000  0.00  0.00    -0.194 NA
BRANCH  39  45
ATOM     42  C   UNL     1       0.000   0.000   0.000  0.00  0.00    +0.000 A 
ATOM     43  C   UNL     1       0.000   0.000   0.000  0.00  0.00    +0.000 A 
ATOM     44  C   UNL     1       0.000   0.000   0.000  0.00  0.00    +0.005 A 
ATOM     45  C   UNL     1       0.000   0.000   0.000  0.00  0.00    +0.055 A 
ATOM     46  C   UNL     1       0.000   0.000   0.000  0.00  0.00    +0.005 A 
ATOM     47  C   UNL     1       0.000   0.000   0.000  0.00  0.00    +0.000 A 
BRANCH  42  51
ATOM     48  C   UNL     1       0.000   0.000   0.000  0.00  0.00    +0.000 A 
ATOM     49  C   UNL     1       0.000   0.000   0.000  0.00  0.00    +0.000 A 
ATOM     50  C   UNL     1       0.000   0.000   0.000  0.00  0.00    +0.000 A 
ATOM     51  C   UNL     1       0.000   0.000   0.000  0.00  0.00    +0.000 A 
ATOM     52  C   UNL     1       0.000   0.000   0.000  0.00  0.00    +0.000 A 
ATOM     53  C   UNL     1       0.000   0.000   0.000  0.00  0.00    +0.000 A 
BRANCH  48  57
ATOM     54  C   UNL     1       0.000   0.000   0.000  0.00  0.00    +0.139 A 
ATOM     55  C   UNL     1       0.000   0.000   0.000  0.00  0.00    +0.037 A 
ATOM     56  C   UNL     1       0.000   0.000   0.000  0.00  0.00    +0.003 A 
ATOM     57  C   UNL     1       0.000   0.000   0.000  0.00  0.00    +0.000 A 
ATOM     58  C   UNL     1       0.000   0.000   0.000  0.00  0.00    +0.003 A 
ATOM     59  C   UNL     1       0.000   0.000   0.000  0.00  0.00    +0.037 A 
BRANCH  54  60
ATOM     60  O   UNL     1       0.000   0.000   0.000  0.00  0.00    -0.475 OA
BRANCH  60  61
ATOM     61  C   UNL     1       0.000   0.000   0.000  0.00  0.00    +0.205 C 
BRANCH  61  62
ATOM     62  C   UNL     1       0.000   0.000   0.000  0.00  0.00    +0.047 C 
BRANCH  62  63
ATOM     63  C   UNL     1       0.000   0.000   0.000  0.00  0.00    +0.004 C 
BRANCH  63  65
ATOM     64  C   UNL     1       0.000   0.000   0.000  0.00  0.00    +0.000 C 
ATOM     65  C   UNL     1       0.000   0.000   0.000  0.00  0.00    +0.000 C 
ENDBRANCH  63  65
ENDBRANCH  62  63
ENDBRANCH  61  62
ENDBRANCH  60  61
ENDBRANCH  54  60
ENDBRANCH  48  57
ENDBRANCH  42  51
ENDBRANCH  39  45
ENDBRANCH   1  41
BRANCH  30  66
ATOM     66  C   UNL     1       0.000   0.000   0.000  0.00  0.00    +0.181 C 
ATOM     67  C   UNL     1       0.000   0.000   0.000  0.00  0.00    +0.038 C 
ATOM     68  O   UNL     1       0.000   0.000   0.000  0.00  0.00    -0.221 OA
ENDBRANCH  30  66
BRANCH  15  69
ATOM     69  C   UNL     1       0.000   0.000   0.000  0.00  0.00    +0.181 C 
ATOM     70  C   UNL     1       0.000   0.000   0.000  0.00  0.00    +0.038 C 
ATOM     71  O   UNL     1       0.000   0.000   0.000  0.00  0.00    -0.221 OA
ENDBRANCH  15  69
BRANCH  19  72
ATOM     72  C   UNL     1       0.000   0.000   0.000  0.00  0.00    +0.215 C 
ATOM     73  O   UNL     1       0.000   0.000   0.000  0.00  0.00    -0.218 OA
BRANCH  72  74
ATOM     74  C   UNL     1       0.000   0.000   0.000  0.00  0.00    +0.207 C 
ATOM     75  O   UNL     1       0.000   0.000   0.000  0.00  0.00    -0.215 OA
BRANCH  74  76
ATOM     76  C   UNL     1       0.000   0.000   0.000  0.00  0.00    +0.011 A 
ATOM     77  C   UNL     1       0.000   0.000   0.000  0.00  0.00    +0.002 A 
ATOM     78  C   UNL     1       0.000   0.000   0.000  0.00  0.00    +0.042 A 
ATOM     79  C   UNL     1       0.000   0.000   0.000  0.00  0.00    +0.196 A 
ATOM     80  C   UNL     1       0.000   0.000   0.000  0.00  0.00    +0.042 A 
ATOM     81  C   UNL     1       0.000   0.000   0.000  0.00  0.00    +0.002 A 
ATOM     82  O   UNL     1       0.000   0.000   0.000  0.00  0.00    -0.287 OA
ENDBRANCH  74  76
ENDBRANCH  72  74
ENDBRANCH  19  72
TORSDOF 14
