REMARK  Name = 
REMARK  23 active torsions:
REMARK  status: ('A' for Active; 'I' for Inactive)
REMARK    1  A    between atoms: C_8  and  C_9
REMARK    2  A    between atoms: C_15  and  N_59
REMARK    3  A    between atoms: C_18  and  N_19
REMARK    4  A    between atoms: N_19  and  C_20
REMARK    5  A    between atoms: C_20  and  C_21
REMARK    6  A    between atoms: C_31  and  C_32
REMARK    7  A    between atoms: C_32  and  C_33
REMARK    8  A    between atoms: C_33  and  C_34
REMARK    9  A    between atoms: C_40  and  C_41
REMARK   10  A    between atoms: C_41  and  C_42
REMARK   11  A    between atoms: C_42  and  C_43
REMARK   12  A    between atoms: C_60  and  C_61
REMARK   13  A    between atoms: C_61  and  C_62
REMARK   14  A    between atoms: C_62  and  C_63
REMARK   15  A    between atoms: C_63  and  C_64
REMARK   16  A    between atoms: C_64  and  C_65
REMARK   17  A    between atoms: C_65  and  C_66
REMARK   18  A    between atoms: C_66  and  C_67
REMARK   19  A    between atoms: C_67  and  C_68
REMARK   20  A    between atoms: C_68  and  C_69
REMARK   21  A    between atoms: C_69  and  C_70
REMARK   22  A    between atoms: C_70  and  C_71
REMARK   23  A    between atoms: C_71  and  C_72
REMARK                            x       y       z     vdW  Elec       q    Type
REMARK                         _______ _______ _______ _____ _____    ______ ____
ROOT
ATOM      1  C   UNL     1       0.000   0.000   0.000  0.00  0.00    +0.000 C 
ATOM      2  N   UNL     1       0.000   0.000   0.000  0.00  0.00    +0.000 N 
ATOM      3  C   UNL     1       0.000   0.000   0.000  0.00  0.00    +0.000 C 
ATOM      4  C   UNL     1       0.000   0.000   0.000  0.00  0.00    +0.000 C 
ATOM      5  C   UNL     1       0.000   0.000   0.000  0.00  0.00    +0.000 C 
ATOM      6  O   UNL     1       0.000   0.000   0.000  0.00  0.00    +0.000 OA
ATOM      7  C   UNL     1       0.000   0.000   0.000  0.00  0.00    +0.000 C 
ATOM      8  C   UNL     1       0.000   0.000   0.000  0.00  0.00    +0.000 C 
ATOM      9  N   UNL     1       0.000   0.000   0.000  0.00  0.00    +0.000 NA
ATOM     10  C   UNL     1       0.000   0.000   0.000  0.00  0.00    +0.000 C 
ATOM     11  O   UNL     1       0.000   0.000   0.000  0.00  0.00    +0.000 OA
ATOM     12  C   UNL     1       0.000   0.000   0.000  0.00  0.00    +0.000 C 
ATOM     13  C   UNL     1       0.000   0.000   0.000  0.00  0.00    +0.000 C 
ATOM     14  C   UNL     1       0.000   0.000   0.000  0.00  0.00    +0.000 C 
ATOM     15  C   UNL     1       0.000   0.000   0.000  0.00  0.00    +0.000 C 
ATOM     16  N   UNL     1       0.000   0.000   0.000  0.00  0.00    +0.000 NA
ATOM     17  C   UNL     1       0.000   0.000   0.000  0.00  0.00    +0.000 C 
ATOM     18  C   UNL     1       0.000   0.000   0.000  0.00  0.00    +0.000 C 
ATOM     19  C   UNL     1       0.000   0.000   0.000  0.00  0.00    +0.000 C 
ATOM     20  C   UNL     1       0.000   0.000   0.000  0.00  0.00    +0.000 C 
ATOM     21  C   UNL     1       0.000   0.000   0.000  0.00  0.00    +0.000 C 
ATOM     22  N   UNL     1       0.000   0.000   0.000  0.00  0.00    +0.000 N 
ATOM     23  C   UNL     1       0.000   0.000   0.000  0.00  0.00    +0.000 C 
ATOM     24  C   UNL     1       0.000   0.000   0.000  0.00  0.00    +0.000 C 
ATOM     25  N   UNL     1       0.000   0.000   0.000  0.00  0.00    +0.000 NA
ATOM     26  C   UNL     1       0.000   0.000   0.000  0.00  0.00    +0.000 C 
ATOM     27  O   UNL     1       0.000   0.000   0.000  0.00  0.00    +0.000 OA
ATOM     28  C   UNL     1       0.000   0.000   0.000  0.00  0.00    +0.000 C 
ATOM     29  N   UNL     1       0.000   0.000   0.000  0.00  0.00    +0.000 NA
ATOM     30  C   UNL     1       0.000   0.000   0.000  0.00  0.00    +0.000 C 
ATOM     31  O   UNL     1       0.000   0.000   0.000  0.00  0.00    +0.000 OA
ATOM     32  O   UNL     1       0.000   0.000   0.000  0.00  0.00    +0.000 OA
ATOM     33  O   UNL     1       0.000   0.000   0.000  0.00  0.00    +0.000 OA
ATOM     34  O   UNL     1       0.000   0.000   0.000  0.00  0.00    +0.000 OA
ATOM     35  O   UNL     1       0.000   0.000   0.000  0.00  0.00    +0.000 OA
ATOM     36  O   UNL     1       0.000   0.000   0.000  0.00  0.00    +0.000 OA
ENDROOT
BRANCH   8  37
ATOM     37  C   UNL     1       0.000   0.000   0.000  0.00  0.00    +0.000 C 
ATOM     38  C   UNL     1       0.000   0.000   0.000  0.00  0.00    +0.000 C 
ATOM     39  O   UNL     1       0.000   0.000   0.000  0.00  0.00    +0.000 OA
ENDBRANCH   8  37
BRANCH  12  40
ATOM     40  N   UNL     1       0.000   0.000   0.000  0.00  0.00    +0.000 NA
ATOM     41  C   UNL     1       0.000   0.000   0.000  0.00  0.00    +0.000 C 
ATOM     42  O   UNL     1       0.000   0.000   0.000  0.00  0.00    +0.000 OA
BRANCH  41  43
ATOM     43  C   UNL     1       0.000   0.000   0.000  0.00  0.00    +0.000 C 
BRANCH  43  44
ATOM     44  C   UNL     1       0.000   0.000   0.000  0.00  0.00    +0.000 C 
BRANCH  44  45
ATOM     45  C   UNL     1       0.000   0.000   0.000  0.00  0.00    +0.000 C 
BRANCH  45  46
ATOM     46  C   UNL     1       0.000   0.000   0.000  0.00  0.00    +0.000 C 
BRANCH  46  47
ATOM     47  C   UNL     1       0.000   0.000   0.000  0.00  0.00    +0.000 C 
BRANCH  47  48
ATOM     48  C   UNL     1       0.000   0.000   0.000  0.00  0.00    +0.000 C 
BRANCH  48  49
ATOM     49  C   UNL     1       0.000   0.000   0.000  0.00  0.00    +0.000 C 
BRANCH  49  50
ATOM     50  C   UNL     1       0.000   0.000   0.000  0.00  0.00    +0.000 C 
BRANCH  50  51
ATOM     51  C   UNL     1       0.000   0.000   0.000  0.00  0.00    +0.000 C 
ATOM     52  C   UNL     1       0.000   0.000   0.000  0.00  0.00    +0.000 C 
BRANCH  51  53
ATOM     53  C   UNL     1       0.000   0.000   0.000  0.00  0.00    +0.000 C 
BRANCH  53  54
ATOM     54  C   UNL     1       0.000   0.000   0.000  0.00  0.00    +0.000 C 
ATOM     55  C   UNL     1       0.000   0.000   0.000  0.00  0.00    +0.000 C 
BRANCH  54  56
ATOM     56  C   UNL     1       0.000   0.000   0.000  0.00  0.00    +0.000 C 
ATOM     57  C   UNL     1       0.000   0.000   0.000  0.00  0.00    +0.000 C 
ENDBRANCH  54  56
ENDBRANCH  53  54
ENDBRANCH  51  53
ENDBRANCH  50  51
ENDBRANCH  49  50
ENDBRANCH  48  49
ENDBRANCH  47  48
ENDBRANCH  46  47
ENDBRANCH  45  46
ENDBRANCH  44  45
ENDBRANCH  43  44
ENDBRANCH  41  43
ENDBRANCH  12  40
BRANCH  28  58
ATOM     58  C   UNL     1       0.000   0.000   0.000  0.00  0.00    +0.000 C 
ATOM     59  O   UNL     1       0.000   0.000   0.000  0.00  0.00    +0.000 OA
BRANCH  58  60
ATOM     60  C   UNL     1       0.000   0.000   0.000  0.00  0.00    +0.000 C 
ATOM     61  O   UNL     1       0.000   0.000   0.000  0.00  0.00    +0.000 OA
BRANCH  60  62
ATOM     62  C   UNL     1       0.000   0.000   0.000  0.00  0.00    +0.000 A 
ATOM     63  C   UNL     1       0.000   0.000   0.000  0.00  0.00    +0.000 A 
ATOM     64  C   UNL     1       0.000   0.000   0.000  0.00  0.00    +0.000 A 
ATOM     65  C   UNL     1       0.000   0.000   0.000  0.00  0.00    +0.000 A 
ATOM     66  C   UNL     1       0.000   0.000   0.000  0.00  0.00    +0.000 A 
ATOM     67  C   UNL     1       0.000   0.000   0.000  0.00  0.00    +0.000 A 
ATOM     68  O   UNL     1       0.000   0.000   0.000  0.00  0.00    +0.000 OA
ENDBRANCH  60  62
ENDBRANCH  58  60
ENDBRANCH  28  58
BRANCH  24  69
ATOM     69  C   UNL     1       0.000   0.000   0.000  0.00  0.00    +0.000 C 
ATOM     70  O   UNL     1       0.000   0.000   0.000  0.00  0.00    +0.000 OA
BRANCH  69  71
ATOM     71  C   UNL     1       0.000   0.000   0.000  0.00  0.00    +0.000 C 
BRANCH  71  72
ATOM     72  C   UNL     1       0.000   0.000   0.000  0.00  0.00    +0.000 C 
ATOM     73  N   UNL     1       0.000   0.000   0.000  0.00  0.00    +0.000 NA
ENDBRANCH  71  72
ENDBRANCH  69  71
ENDBRANCH  24  69
BRANCH  15  74
ATOM     74  N   UNL     1       0.000   0.000   0.000  0.00  0.00    +0.000 NA
BRANCH  74  75
ATOM     75  C   UNL     1       0.000   0.000   0.000  0.00  0.00    +0.000 C 
BRANCH  75  76
ATOM     76  C   UNL     1       0.000   0.000   0.000  0.00  0.00    +0.000 C 
ATOM     77  N   UNL     1       0.000   0.000   0.000  0.00  0.00    +0.000 NA
ENDBRANCH  75  76
ENDBRANCH  74  75
ENDBRANCH  15  74
TORSDOF 23
