REMARK  Name = 
REMARK  22 active torsions:
REMARK  status: ('A' for Active; 'I' for Inactive)
REMARK    1  A    between atoms: C_1  and  C_2
REMARK    2  A    between atoms: C_2  and  C_3
REMARK    3  A    between atoms: C_2  and  C_6
REMARK    4  A    between atoms: C_3  and  C_4
REMARK    5  A    between atoms: C_3  and  C_5
REMARK    6  A    between atoms: C_6  and  C_50
REMARK    7  A    between atoms: C_9  and  C_49
REMARK    8  A    between atoms: C_14  and  C_48
REMARK    9  A    between atoms: C_17  and  O_47
REMARK   10  A    between atoms: C_22  and  C_27
REMARK   11  A    between atoms: C_23  and  C_24
REMARK   12  A    between atoms: C_24  and  O_26
REMARK   13  A    between atoms: C_29  and  O_43
REMARK   14  A    between atoms: C_30  and  O_31
REMARK   15  A    between atoms: O_31  and  C_32
REMARK   16  A    between atoms: C_33  and  O_42
REMARK   17  A    between atoms: C_34  and  O_41
REMARK   18  A    between atoms: C_35  and  O_40
REMARK   19  A    between atoms: C_36  and  C_38
REMARK   20  A    between atoms: C_38  and  O_39
REMARK   21  A    between atoms: O_43  and  C_44
REMARK   22  A    between atoms: C_44  and  C_46
REMARK                            x       y       z     vdW  Elec       q    Type
REMARK                         _______ _______ _______ _____ _____    ______ ____
ROOT
ATOM      1  C   UNL     1       5.735   0.296  -0.788  0.00  0.00    -0.016 C 
ATOM      2  C   UNL     1       5.188  -1.076  -0.258  0.00  0.00    +0.008 C 
ATOM      3  C   UNL     1       3.844  -1.168   0.417  0.00  0.00    +0.008 C 
ATOM      4  C   UNL     1       2.783  -0.168  -0.069  0.00  0.00    -0.019 C 
ATOM      5  C   UNL     1       1.450  -0.895  -0.398  0.00  0.00    +0.022 C 
ATOM      6  C   UNL     1       0.994  -2.008   0.551  0.00  0.00    +0.009 C 
ATOM      7  C   UNL     1      -0.256  -2.591  -0.057  0.00  0.00    +0.006 C 
ATOM      8  C   UNL     1      -1.389  -1.565  -0.115  0.00  0.00    +0.015 C 
ATOM      9  C   UNL     1      -2.513  -1.781   0.902  0.00  0.00    +0.025 C 
ATOM     10  C   UNL     1      -2.108  -1.261   2.289  0.00  0.00    +0.172 C 
ATOM     11  O   UNL     1      -1.993   0.149   2.248  0.00  0.00    -0.350 OA
ATOM     12  C   UNL     1      -0.930   0.549   1.410  0.00  0.00    +0.257 C 
ATOM     13  C   UNL     1      -0.980  -0.053  -0.052  0.00  0.00    +0.050 C 
ATOM     14  C   UNL     1       0.378   0.144  -0.693  0.00  0.00    -0.059 C 
ATOM     15  C   UNL     1       0.702   1.287  -1.329  0.00  0.00    -0.026 C 
ATOM     16  C   UNL     1       2.088   1.667  -1.716  0.00  0.00    +0.035 C 
ATOM     17  C   UNL     1       3.190   0.596  -1.425  0.00  0.00    -0.009 C 
ATOM     18  C   UNL     1       4.602   1.286  -1.294  0.00  0.00    +0.110 C 
ATOM     19  C   UNL     1       3.213  -0.339  -2.679  0.00  0.00    +0.013 C 
ATOM     20  C   UNL     1      -2.071   0.664  -0.862  0.00  0.00    +0.063 C 
ATOM     21  C   UNL     1      -3.463   0.399  -0.328  0.00  0.00    +0.207 C 
ATOM     22  C   UNL     1      -3.720  -0.999   0.326  0.00  0.00    +0.170 C 
ATOM     23  C   UNL     1      -2.900  -3.268   1.061  0.00  0.00    +0.016 C 
ATOM     24  C   UNL     1       2.518   0.776   1.154  0.00  0.00    +0.012 C 
ATOM     25  C   UNL     1       6.672  -0.202  -1.948  0.00  0.00    +0.012 C 
ENDROOT
BRANCH   1  27
ATOM     26  C   UNL     1       5.843   1.279   1.695  0.00  0.00    +0.008 C 
ATOM     27  C   UNL     1       6.609   0.976   0.392  0.00  0.00    -0.005 C 
BRANCH  27  28
ATOM     28  C   UNL     1       7.478   2.230   0.029  0.00  0.00    -0.014 C 
ATOM     29  C   UNL     1       6.743   3.571  -0.152  0.00  0.00    +0.007 C 
ATOM     30  C   UNL     1       8.554   2.464   1.102  0.00  0.00    +0.007 C 
ENDBRANCH  27  28
ENDBRANCH   1  27
BRANCH  18  31
ATOM     31  C   UNL     1       4.880   2.237  -2.525  0.00  0.00    +0.309 C 
ATOM     32  O   UNL     1       4.012   2.888  -3.107  0.00  0.00    -0.251 OA
BRANCH  31  33
ATOM     33  O   UNL     1       6.149   2.429  -2.910  0.00  0.00    -0.480 OA
ATOM     34  H   UNL     1       6.834   2.008  -2.384  0.00  0.00    +0.295 HD
ENDBRANCH  31  33
ENDBRANCH  18  31
BRANCH  12  35
ATOM     35  O   UNL     1      -1.007   1.967   1.393  0.00  0.00    -0.366 OA
ATOM     36  H   UNL     1      -1.610   2.164   2.135  0.00  0.00    +0.213 HD
ENDBRANCH  12  35
BRANCH  22  37
ATOM     37  O   UNL     1      -4.666  -0.912   1.389  0.00  0.00    -0.341 OA
BRANCH  37  38
ATOM     38  C   UNL     1      -5.888  -0.279   1.069  0.00  0.00    +0.282 C 
ATOM     39  C   UNL     1      -6.759  -1.219   0.227  0.00  0.00    +0.201 C 
ATOM     40  C   UNL     1      -8.241  -1.005   0.551  0.00  0.00    +0.179 C 
ATOM     41  C   UNL     1      -8.533   0.457   0.970  0.00  0.00    +0.177 C 
ATOM     42  C   UNL     1      -7.551   1.003   2.032  0.00  0.00    +0.178 C 
ATOM     43  O   UNL     1      -6.506   0.056   2.299  0.00  0.00    -0.341 OA
BRANCH  41  44
ATOM     44  O   UNL     1      -8.388   1.313  -0.185  0.00  0.00    -0.386 OA
ATOM     45  H   UNL     1      -8.700   0.829  -0.973  0.00  0.00    +0.210 HD
ENDBRANCH  41  44
BRANCH  40  46
ATOM     46  O   UNL     1      -8.677  -1.927   1.551  0.00  0.00    -0.386 OA
ATOM     47  H   UNL     1      -8.475  -2.821   1.217  0.00  0.00    +0.210 HD
ENDBRANCH  40  46
BRANCH  39  48
ATOM     48  O   UNL     1      -6.591  -1.015  -1.201  0.00  0.00    -0.384 OA
ATOM     49  H   UNL     1      -5.675  -0.766  -1.377  0.00  0.00    +0.210 HD
ENDBRANCH  39  48
BRANCH  42  50
ATOM     50  C   UNL     1      -8.189   1.351   3.374  0.00  0.00    +0.190 C 
BRANCH  50  51
ATOM     51  O   UNL     1      -7.183   1.880   4.248  0.00  0.00    -0.392 OA
ATOM     52  H   UNL     1      -6.407   1.292   4.139  0.00  0.00    +0.210 HD
ENDBRANCH  50  51
ENDBRANCH  42  50
ENDBRANCH  37  38
ENDBRANCH  22  37
BRANCH  21  53
ATOM     53  O   UNL     1      -4.351   0.454  -1.496  0.00  0.00    -0.459 OA
BRANCH  53  54
ATOM     54  C   UNL     1      -4.640   1.675  -2.017  0.00  0.00    +0.304 C 
ATOM     55  O   UNL     1      -4.319   2.748  -1.525  0.00  0.00    -0.251 OA
ATOM     56  C   UNL     1      -5.360   1.527  -3.327  0.00  0.00    +0.136 C 
ENDBRANCH  53  54
ENDBRANCH  21  53
TORSDOF 14
