
 OpenBabel10112516383D

110115  0  0  1  0  0  0  0  0999 V2000
    6.8224    3.2262   -1.2171 C   0  0  0  0  0  0  0  0  0  0  0  0
    6.0739    2.8257    0.1043 C   0  0  2  0  0  0  0  0  0  0  0  0
    6.8102    3.5317    1.2894 C   0  0  0  0  0  0  0  0  0  0  0  0
    6.2573    3.3168    2.6970 C   0  0  0  0  0  0  0  0  0  0  0  0
    6.8124    5.0590    1.0320 C   0  0  0  0  0  0  0  0  0  0  0  0
    5.7113    1.2560    0.0862 C   0  0  1  0  0  0  0  0  0  0  0  0
    5.0370    0.5753    1.3266 C   0  0  0  0  0  0  0  0  0  0  0  0
    3.5470    0.7548    1.6438 C   0  0  0  0  0  0  0  0  0  0  0  0
    2.7411    1.4066    0.5189 C   0  0  2  0  0  0  0  0  0  0  0  0
    1.2214    1.0894    0.5563 C   0  0  1  0  0  0  0  0  0  0  0  0
    0.5392    0.9806    1.9087 C   0  0  0  0  0  0  0  0  0  0  0  0
   -0.9018    0.5567    1.6409 C   0  0  0  0  0  0  0  0  0  0  0  0
   -1.6129    1.3482    0.4971 C   0  0  1  0  0  0  0  0  0  0  0  0
   -2.9930    1.8413    0.9368 C   0  0  1  0  0  0  0  0  0  0  0  0
   -2.7598    2.9142    2.0308 C   0  0  0  0  0  0  0  0  0  0  0  0
   -2.0858    4.0485    1.4778 O   0  0  0  0  0  0  0  0  0  0  0  0
   -0.7938    3.7381    0.9585 C   0  0  3  0  0  0  0  0  0  0  0  0
   -0.8291    2.5560   -0.0790 C   0  0  1  0  0  0  0  0  0  0  0  0
    0.5219    1.9742   -0.4628 C   0  0  0  0  0  0  0  0  0  0  0  0
    1.1030    2.1136   -1.6698 C   0  0  0  0  0  0  0  0  0  0  0  0
    2.4096    1.5009   -2.0541 C   0  0  0  0  0  0  0  0  0  0  0  0
    3.2315    0.8346   -0.8918 C   0  0  1  0  0  0  0  0  0  0  0  0
    4.7482    1.0987   -1.1690 C   0  0  2  0  0  0  0  0  0  0  0  0
    5.2650    0.2204   -2.3061 C   0  0  0  0  0  0  0  0  0  0  0  0
    5.7723   -0.8818   -2.2243 O   0  0  0  0  0  0  0  0  0  0  0  0
    4.9984    0.7551   -3.5195 O   0  0  0  0  0  0  0  0  0  0  0  0
    2.9878   -0.7236   -0.9924 C   0  0  0  0  0  0  0  0  0  0  0  0
   -1.5554    3.0513   -1.3448 C   0  0  0  0  0  0  0  0  0  0  0  0
   -2.9993    3.4716   -1.1471 C   0  0  2  0  0  0  0  0  0  0  0  0
   -3.7587    2.4524   -0.2754 C   0  0  2  0  0  0  0  0  0  0  0  0
   -4.9078    3.0338    0.3337 O   0  0  0  0  0  0  0  0  0  0  0  0
   -5.9032    3.6089   -0.4724 C   0  0  1  0  0  0  0  0  0  0  0  0
   -6.5756    2.5535   -1.3788 C   0  0  1  0  0  0  0  0  0  0  0  0
   -7.9924    2.2770   -0.9039 C   0  0  2  0  0  0  0  0  0  0  0  0
   -7.9826    2.0566    0.6068 C   0  0  1  0  0  0  0  0  0  0  0  0
   -7.5249    3.3435    1.3135 C   0  0  2  0  0  0  0  0  0  0  0  0
   -6.8229    4.2403    0.4217 O   0  0  0  0  0  0  0  0  0  0  0  0
   -6.7240    3.0344    2.5942 C   0  0  0  0  0  0  0  0  0  0  0  0
   -6.2415    4.2305    3.2027 O   0  0  0  0  0  0  0  0  0  0  0  0
   -9.2895    1.6771    1.0423 O   0  0  0  0  0  0  0  0  0  0  0  0
   -8.4907    1.1007   -1.5631 O   0  0  0  0  0  0  0  0  0  0  0  0
   -6.6548    2.9322   -2.7635 O   0  0  0  0  0  0  0  0  0  0  0  0
   -3.6340    3.4809   -2.4679 O   0  0  0  0  0  0  0  0  0  0  0  0
   -3.2784    4.4904   -3.3146 C   0  0  0  0  0  0  0  0  0  0  0  0
   -2.6473    5.4823   -3.0028 O   0  0  0  0  0  0  0  0  0  0  0  0
   -3.7972    4.2121   -4.6993 C   0  0  0  0  0  0  0  0  0  0  0  0
   -0.3299    4.9303    0.3457 O   0  0  0  0  0  0  0  0  0  0  0  0
   -3.8139    0.6315    1.4510 C   0  0  0  0  0  0  0  0  0  0  0  0
    2.8577    2.9453    0.7721 C   0  0  0  0  0  0  0  0  0  0  0  0
    7.0729    0.5099   -0.0496 C   0  0  0  0  0  0  0  0  0  0  0  0
    6.3466    4.1140   -1.6524 H   0  0  0  0  0  0  0  0  0  0  0  0
    7.8778    3.4496   -1.0428 H   0  0  0  0  0  0  0  0  0  0  0  0
    6.7985    2.4602   -1.9956 H   0  0  0  0  0  0  0  0  0  0  0  0
    5.1276    3.3552    0.0081 H   0  0  0  0  0  0  0  0  0  0  0  0
    7.8535    3.1943    1.3028 H   0  0  0  0  0  0  0  0  0  0  0  0
    5.2089    3.6078    2.7844 H   0  0  0  0  0  0  0  0  0  0  0  0
    6.8176    3.9298    3.4134 H   0  0  0  0  0  0  0  0  0  0  0  0
    6.3861    2.2938    3.0390 H   0  0  0  0  0  0  0  0  0  0  0  0
    7.0956    5.6244    1.9257 H   0  0  0  0  0  0  0  0  0  0  0  0
    7.5280    5.3285    0.2488 H   0  0  0  0  0  0  0  0  0  0  0  0
    5.8231    5.4101    0.7164 H   0  0  0  0  0  0  0  0  0  0  0  0
    5.6196    0.7192    2.2362 H   0  0  0  0  0  0  0  0  0  0  0  0
    5.1270   -0.5109    1.1700 H   0  0  0  0  0  0  0  0  0  0  0  0
    3.1318   -0.2343    1.8800 H   0  0  0  0  0  0  0  0  0  0  0  0
    3.4427    1.3214    2.5809 H   0  0  0  0  0  0  0  0  0  0  0  0
    1.0512    0.0802    0.1923 H   0  0  0  0  0  0  0  0  0  0  0  0
    1.0075    0.2045    2.5208 H   0  0  0  0  0  0  0  0  0  0  0  0
    0.5855    1.8909    2.5089 H   0  0  0  0  0  0  0  0  0  0  0  0
   -1.4385    0.5626    2.5916 H   0  0  0  0  0  0  0  0  0  0  0  0
   -0.8980   -0.5002    1.3357 H   0  0  0  0  0  0  0  0  0  0  0  0
   -1.7589    0.6266   -0.3232 H   0  0  0  0  0  0  0  0  0  0  0  0
   -3.7008    3.2668    2.4584 H   0  0  0  0  0  0  0  0  0  0  0  0
   -2.1742    2.5413    2.8782 H   0  0  0  0  0  0  0  0  0  0  0  0
   -0.1379    3.5640    1.8079 H   0  0  0  0  0  0  0  0  0  0  0  0
    0.6763    2.7425   -2.4459 H   0  0  0  0  0  0  0  0  0  0  0  0
    2.9788    2.3113   -2.5252 H   0  0  0  0  0  0  0  0  0  0  0  0
    2.2108    0.7737   -2.8507 H   0  0  0  0  0  0  0  0  0  0  0  0
    4.7375    2.0896   -1.6319 H   0  0  0  0  0  0  0  0  0  0  0  0
    5.2835    0.0680   -4.1570 H   0  0  0  0  0  0  0  0  0  0  0  0
    3.5698   -1.2784   -0.2533 H   0  0  0  0  0  0  0  0  0  0  0  0
    3.2510   -1.1104   -1.9820 H   0  0  0  0  0  0  0  0  0  0  0  0
    1.9486   -1.0398   -0.8929 H   0  0  0  0  0  0  0  0  0  0  0  0
   -1.0122    3.8913   -1.8004 H   0  0  0  0  0  0  0  0  0  0  0  0
   -1.5518    2.2542   -2.1108 H   0  0  0  0  0  0  0  0  0  0  0  0
   -3.0788    4.4758   -0.7185 H   0  0  0  0  0  0  0  0  0  0  0  0
   -4.0591    1.6220   -0.9213 H   0  0  0  0  0  0  0  0  0  0  0  0
   -5.4727    4.4234   -1.0607 H   0  0  0  0  0  0  0  0  0  0  0  0
   -6.0244    1.6120   -1.3736 H   0  0  0  0  0  0  0  0  0  0  0  0
   -8.6713    3.0925   -1.1814 H   0  0  0  0  0  0  0  0  0  0  0  0
   -7.3233    1.2136    0.8479 H   0  0  0  0  0  0  0  0  0  0  0  0
   -8.4001    3.9178    1.6367 H   0  0  0  0  0  0  0  0  0  0  0  0
   -5.8562    2.4060    2.4061 H   0  0  0  0  0  0  0  0  0  0  0  0
   -7.3414    2.5004    3.3226 H   0  0  0  0  0  0  0  0  0  0  0  0
   -5.8102    4.7359    2.4871 H   0  0  0  0  0  0  0  0  0  0  0  0
   -9.6258    1.0819    0.3409 H   0  0  0  0  0  0  0  0  0  0  0  0
   -8.2655    1.2308   -2.5075 H   0  0  0  0  0  0  0  0  0  0  0  0
   -5.9875    3.6205   -2.9240 H   0  0  0  0  0  0  0  0  0  0  0  0
   -3.5768    3.1789   -4.9788 H   0  0  0  0  0  0  0  0  0  0  0  0
   -4.8722    4.3976   -4.7378 H   0  0  0  0  0  0  0  0  0  0  0  0
   -3.2942    4.8693   -5.4127 H   0  0  0  0  0  0  0  0  0  0  0  0
   -1.0852    5.5398    0.4275 H   0  0  0  0  0  0  0  0  0  0  0  0
   -4.8880    0.8196    1.4559 H   0  0  0  0  0  0  0  0  0  0  0  0
   -3.5352    0.3304    2.4640 H   0  0  0  0  0  0  0  0  0  0  0  0
   -3.6661   -0.2338    0.7909 H   0  0  0  0  0  0  0  0  0  0  0  0
    2.0677    3.3041    1.4417 H   0  0  0  0  0  0  0  0  0  0  0  0
    2.8174    3.5521   -0.1358 H   0  0  0  0  0  0  0  0  0  0  0  0
    3.7569    3.2085    1.3210 H   0  0  0  0  0  0  0  0  0  0  0  0
    7.8165    0.9354    0.6317 H   0  0  0  0  0  0  0  0  0  0  0  0
    7.4932    0.5595   -1.0562 H   0  0  0  0  0  0  0  0  0  0  0  0
    6.9903   -0.5526    0.2082 H   0  0  0  0  0  0  0  0  0  0  0  0
  1  2  1  0  0  0  0
  1 51  1  0  0  0  0
  1 52  1  0  0  0  0
  1 53  1  0  0  0  0
  2  3  1  0  0  0  0
  2  6  1  0  0  0  0
  2 54  1  6  0  0  0
  3  4  1  0  0  0  0
  3  5  1  0  0  0  0
  3 55  1  0  0  0  0
  4 56  1  0  0  0  0
  4 57  1  0  0  0  0
  4 58  1  0  0  0  0
  5 59  1  0  0  0  0
  5 60  1  0  0  0  0
  5 61  1  0  0  0  0
  6  7  1  0  0  0  0
  6 23  1  0  0  0  0
  6 50  1  6  0  0  0
  7  8  1  0  0  0  0
  7 62  1  0  0  0  0
  7 63  1  0  0  0  0
  8  9  1  0  0  0  0
  8 64  1  0  0  0  0
  8 65  1  0  0  0  0
  9 10  1  0  0  0  0
  9 22  1  0  0  0  0
  9 49  1  1  0  0  0
 10 11  1  0  0  0  0
 10 19  1  0  0  0  0
 10 66  1  6  0  0  0
 11 12  1  0  0  0  0
 11 67  1  0  0  0  0
 11 68  1  0  0  0  0
 12 13  1  0  0  0  0
 12 69  1  0  0  0  0
 12 70  1  0  0  0  0
 13 14  1  0  0  0  0
 13 18  1  0  0  0  0
 13 71  1  6  0  0  0
 14 15  1  0  0  0  0
 14 30  1  0  0  0  0
 14 48  1  1  0  0  0
 15 16  1  0  0  0  0
 15 72  1  0  0  0  0
 15 73  1  0  0  0  0
 16 17  1  0  0  0  0
 17 18  1  0  0  0  0
 17 47  1  0  0  0  0
 17 74  1  0  0  0  0
 18 19  1  6  0  0  0
 18 28  1  0  0  0  0
 19 20  2  0  0  0  0
 20 21  1  0  0  0  0
 20 75  1  0  0  0  0
 21 22  1  0  0  0  0
 21 76  1  0  0  0  0
 21 77  1  0  0  0  0
 22 23  1  0  0  0  0
 22 27  1  6  0  0  0
 23 24  1  0  0  0  0
 23 78  1  6  0  0  0
 24 25  2  0  0  0  0
 24 26  1  0  0  0  0
 26 79  1  0  0  0  0
 27 80  1  0  0  0  0
 27 81  1  0  0  0  0
 27 82  1  0  0  0  0
 28 29  1  0  0  0  0
 28 83  1  0  0  0  0
 28 84  1  0  0  0  0
 29 30  1  0  0  0  0
 29 43  1  0  0  0  0
 29 85  1  1  0  0  0
 30 31  1  0  0  0  0
 30 86  1  6  0  0  0
 31 32  1  0  0  0  0
 32 33  1  0  0  0  0
 32 37  1  0  0  0  0
 32 87  1  6  0  0  0
 33 34  1  0  0  0  0
 33 42  1  0  0  0  0
 33 88  1  1  0  0  0
 34 35  1  0  0  0  0
 34 41  1  0  0  0  0
 34 89  1  6  0  0  0
 35 36  1  0  0  0  0
 35 40  1  0  0  0  0
 35 90  1  1  0  0  0
 36 37  1  0  0  0  0
 36 38  1  0  0  0  0
 36 91  1  1  0  0  0
 38 39  1  0  0  0  0
 38 92  1  0  0  0  0
 38 93  1  0  0  0  0
 39 94  1  0  0  0  0
 40 95  1  0  0  0  0
 41 96  1  0  0  0  0
 42 97  1  0  0  0  0
 43 44  1  0  0  0  0
 44 45  2  0  0  0  0
 44 46  1  0  0  0  0
 46 98  1  0  0  0  0
 46 99  1  0  0  0  0
 46100  1  0  0  0  0
 47101  1  0  0  0  0
 48102  1  0  0  0  0
 48103  1  0  0  0  0
 48104  1  0  0  0  0
 49105  1  0  0  0  0
 49106  1  0  0  0  0
 49107  1  0  0  0  0
 50108  1  0  0  0  0
 50109  1  0  0  0  0
 50110  1  0  0  0  0
M  END
$$$$
