REMARK  Name = 
REMARK  9 active torsions:
REMARK  status: ('A' for Active; 'I' for Inactive)
REMARK    1  A    between atoms: C_2  and  C_4
REMARK    2  A    between atoms: C_4  and  C_6
REMARK    3  A    between atoms: C_23  and  N_24
REMARK    4  A    between atoms: C_28  and  C_29
REMARK    5  A    between atoms: C_35  and  O_36
REMARK    6  A    between atoms: O_36  and  C_37
REMARK    7  A    between atoms: C_37  and  C_38
REMARK    8  A    between atoms: C_38  and  C_41
REMARK    9  A    between atoms: C_50  and  C_51
REMARK                            x       y       z     vdW  Elec       q    Type
REMARK                         _______ _______ _______ _____ _____    ______ ____
ROOT
ATOM      6  C   UNL     1       0.000   0.000   0.000  0.00  0.00    +0.000 C 
ATOM      7  C   UNL     1       0.000   0.000   0.000  0.00  0.00    +0.000 C 
ATOM      8  C   UNL     1       0.000   0.000   0.000  0.00  0.00    +0.000 C 
ATOM      9  C   UNL     1       0.000   0.000   0.000  0.00  0.00    +0.000 C 
ATOM     10  C   UNL     1       0.000   0.000   0.000  0.00  0.00    +0.000 C 
ATOM     11  C   UNL     1       0.000   0.000   0.000  0.00  0.00    +0.000 C 
ATOM     12  C   UNL     1       0.000   0.000   0.000  0.00  0.00    +0.000 C 
ATOM     13  C   UNL     1       0.000   0.000   0.000  0.00  0.00    +0.000 C 
ATOM     14  C   UNL     1       0.000   0.000   0.000  0.00  0.00    +0.000 C 
ATOM     15  C   UNL     1       0.000   0.000   0.000  0.00  0.00    +0.000 C 
ATOM     16  C   UNL     1       0.000   0.000   0.000  0.00  0.00    +0.000 C 
ATOM     17  C   UNL     1       0.000   0.000   0.000  0.00  0.00    +0.000 C 
ATOM     18  C   UNL     1       0.000   0.000   0.000  0.00  0.00    +0.000 C 
ATOM     19  O   UNL     1       0.000   0.000   0.000  0.00  0.00    +0.000 OA
ATOM     20  C   UNL     1       0.000   0.000   0.000  0.00  0.00    +0.000 C 
ATOM     21  C   UNL     1       0.000   0.000   0.000  0.00  0.00    +0.000 C 
ATOM     22  C   UNL     1       0.000   0.000   0.000  0.00  0.00    +0.000 C 
ATOM     23  C   UNL     1       0.000   0.000   0.000  0.00  0.00    +0.000 C 
ATOM     35  C   UNL     1       0.000   0.000   0.000  0.00  0.00    +0.000 C 
ATOM     45  C   UNL     1       0.000   0.000   0.000  0.00  0.00    +0.000 C 
ATOM     46  C   UNL     1       0.000   0.000   0.000  0.00  0.00    +0.000 C 
ATOM     47  C   UNL     1       0.000   0.000   0.000  0.00  0.00    +0.000 C 
ATOM     48  C   UNL     1       0.000   0.000   0.000  0.00  0.00    +0.000 C 
ATOM     49  C   UNL     1       0.000   0.000   0.000  0.00  0.00    +0.000 C 
ATOM     50  C   UNL     1       0.000   0.000   0.000  0.00  0.00    +0.000 C 
ENDROOT
BRANCH  23  24
ATOM     24  N   UNL     1       0.000   0.000   0.000  0.00  0.00    +0.000 N 
ATOM     25  N   UNL     1       0.000   0.000   0.000  0.00  0.00    +0.000 NA
ATOM     26  C   UNL     1       0.000   0.000   0.000  0.00  0.00    +0.000 A 
ATOM     27  N   UNL     1       0.000   0.000   0.000  0.00  0.00    +0.000 NA
ATOM     28  C   UNL     1       0.000   0.000   0.000  0.00  0.00    +0.000 A 
BRANCH  28  29
ATOM     29  C   UNL     1       0.000   0.000   0.000  0.00  0.00    +0.000 A 
ATOM     30  C   UNL     1       0.000   0.000   0.000  0.00  0.00    +0.000 A 
ATOM     31  C   UNL     1       0.000   0.000   0.000  0.00  0.00    +0.000 A 
ATOM     32  N   UNL     1       0.000   0.000   0.000  0.00  0.00    +0.000 NA
ATOM     33  C   UNL     1       0.000   0.000   0.000  0.00  0.00    +0.000 A 
ATOM     34  C   UNL     1       0.000   0.000   0.000  0.00  0.00    +0.000 A 
ENDBRANCH  28  29
ENDBRANCH  23  24
BRANCH  50  51
ATOM     51  C   UNL     1       0.000   0.000   0.000  0.00  0.00    +0.000 C 
ATOM     52  O   UNL     1       0.000   0.000   0.000  0.00  0.00    +0.000 OA
ATOM     53  O   UNL     1       0.000   0.000   0.000  0.00  0.00    +0.000 OA
ENDBRANCH  50  51
BRANCH   6   4
ATOM      4  C   UNL     1       0.000   0.000   0.000  0.00  0.00    +0.000 C 
ATOM      5  C   UNL     1       0.000   0.000   0.000  0.00  0.00    +0.000 C 
BRANCH   4   2
ATOM      1  C   UNL     1       0.000   0.000   0.000  0.00  0.00    +0.000 C 
ATOM      2  C   UNL     1       0.000   0.000   0.000  0.00  0.00    +0.000 C 
ATOM      3  C   UNL     1       0.000   0.000   0.000  0.00  0.00    +0.000 C 
ENDBRANCH   4   2
ENDBRANCH   6   4
BRANCH  35  36
ATOM     36  O   UNL     1       0.000   0.000   0.000  0.00  0.00    +0.000 OA
BRANCH  36  37
ATOM     37  C   UNL     1       0.000   0.000   0.000  0.00  0.00    +0.000 C 
BRANCH  37  38
ATOM     38  C   UNL     1       0.000   0.000   0.000  0.00  0.00    +0.000 C 
ATOM     39  C   UNL     1       0.000   0.000   0.000  0.00  0.00    +0.000 C 
ATOM     40  N   UNL     1       0.000   0.000   0.000  0.00  0.00    +0.000 NA
BRANCH  38  41
ATOM     41  C   UNL     1       0.000   0.000   0.000  0.00  0.00    +0.000 C 
ATOM     42  C   UNL     1       0.000   0.000   0.000  0.00  0.00    +0.000 C 
ATOM     43  C   UNL     1       0.000   0.000   0.000  0.00  0.00    +0.000 C 
ATOM     44  C   UNL     1       0.000   0.000   0.000  0.00  0.00    +0.000 C 
ENDBRANCH  38  41
ENDBRANCH  37  38
ENDBRANCH  36  37
ENDBRANCH  35  36
TORSDOF 9
