REMARK  Name = 
REMARK  18 active torsions:
REMARK  status: ('A' for Active; 'I' for Inactive)
REMARK    1  A    between atoms: C_2  and  C_3
REMARK    2  A    between atoms: C_3  and  C_4
REMARK    3  A    between atoms: C_4  and  C_5
REMARK    4  A    between atoms: C_5  and  O_6
REMARK    5  A    between atoms: O_6  and  C_7
REMARK    6  A    between atoms: C_10  and  C_13
REMARK    7  A    between atoms: C_15  and  C_18
REMARK    8  A    between atoms: C_21  and  C_24
REMARK    9  A    between atoms: N_26  and  C_27
REMARK   10  A    between atoms: C_41  and  C_80
REMARK   11  A    between atoms: C_45  and  C_64
REMARK   12  A    between atoms: C_56  and  C_60
REMARK   13  A    between atoms: C_64  and  C_65
REMARK   14  A    between atoms: C_65  and  C_66
REMARK   15  A    between atoms: C_68  and  O_73
REMARK   16  A    between atoms: O_73  and  S_74
REMARK   17  A    between atoms: C_80  and  C_81
REMARK   18  A    between atoms: C_81  and  C_82
REMARK                            x       y       z     vdW  Elec       q    Type
REMARK                         _______ _______ _______ _____ _____    ______ ____
ROOT
ATOM      1  C   UNL     1       0.000   0.000   0.000  0.00  0.00    +0.176 C 
ATOM      2  C   UNL     1       0.000   0.000   0.000  0.00  0.00    +0.069 C 
ATOM      3  C   UNL     1       0.000   0.000   0.000  0.00  0.00    +0.205 C 
ATOM      4  C   UNL     1       0.000   0.000   0.000  0.00  0.00    +0.277 C 
ATOM      5  N   UNL     1       0.000   0.000   0.000  0.00  0.00    -0.171 NA
ATOM      6  C   UNL     1       0.000   0.000   0.000  0.00  0.00    +0.264 C 
ATOM      7  O   UNL     1       0.000   0.000   0.000  0.00  0.00    -0.271 OA
ATOM      8  C   UNL     1       0.000   0.000   0.000  0.00  0.00    +0.184 C 
ATOM      9  C   UNL     1       0.000   0.000   0.000  0.00  0.00    +0.181 C 
ATOM     10  C   UNL     1       0.000   0.000   0.000  0.00  0.00    +0.052 C 
ATOM     11  C   UNL     1       0.000   0.000   0.000  0.00  0.00    +0.096 C 
ATOM     12  N   UNL     1       0.000   0.000   0.000  0.00  0.00    -0.269 N 
ATOM     13  C   UNL     1       0.000   0.000   0.000  0.00  0.00    +0.248 C 
ATOM     14  O   UNL     1       0.000   0.000   0.000  0.00  0.00    -0.273 OA
ATOM     15  C   UNL     1       0.000   0.000   0.000  0.00  0.00    +0.202 C 
ATOM     16  N   UNL     1       0.000   0.000   0.000  0.00  0.00    -0.194 NA
ATOM     17  C   UNL     1       0.000   0.000   0.000  0.00  0.00    +0.264 C 
ATOM     18  O   UNL     1       0.000   0.000   0.000  0.00  0.00    -0.271 OA
ATOM     19  C   UNL     1       0.000   0.000   0.000  0.00  0.00    +0.206 C 
ATOM     20  N   UNL     1       0.000   0.000   0.000  0.00  0.00    -0.194 NA
ATOM     21  C   UNL     1       0.000   0.000   0.000  0.00  0.00    +0.260 C 
ATOM     22  O   UNL     1       0.000   0.000   0.000  0.00  0.00    -0.272 OA
ATOM     23  C   UNL     1       0.000   0.000   0.000  0.00  0.00    +0.156 C 
ATOM     24  C   UNL     1       0.000   0.000   0.000  0.00  0.00    +0.064 C 
ATOM     25  C   UNL     1       0.000   0.000   0.000  0.00  0.00    +0.174 C 
ATOM     26  C   UNL     1       0.000   0.000   0.000  0.00  0.00    +0.127 C 
ATOM     27  N   UNL     1       0.000   0.000   0.000  0.00  0.00    -0.269 N 
ATOM     28  C   UNL     1       0.000   0.000   0.000  0.00  0.00    +0.248 C 
ATOM     29  O   UNL     1       0.000   0.000   0.000  0.00  0.00    -0.273 OA
ATOM     30  C   UNL     1       0.000   0.000   0.000  0.00  0.00    +0.201 C 
ATOM     31  N   UNL     1       0.000   0.000   0.000  0.00  0.00    -0.194 NA
ATOM     32  C   UNL     1       0.000   0.000   0.000  0.00  0.00    +0.262 C 
ATOM     33  O   UNL     1       0.000   0.000   0.000  0.00  0.00    -0.271 OA
ATOM     34  O   UNL     1       0.000   0.000   0.000  0.00  0.00    -0.221 OA
ATOM     35  C   UNL     1       0.000   0.000   0.000  0.00  0.00    +0.004 C 
ATOM     36  O   UNL     1       0.000   0.000   0.000  0.00  0.00    -0.221 OA
ATOM     37  O   UNL     1       0.000   0.000   0.000  0.00  0.00    -0.196 OA
ATOM     38  O   UNL     1       0.000   0.000   0.000  0.00  0.00    -0.218 OA
ENDROOT
BRANCH  30  39
ATOM     39  C   UNL     1       0.000   0.000   0.000  0.00  0.00    +0.181 C 
ATOM     40  C   UNL     1       0.000   0.000   0.000  0.00  0.00    +0.038 C 
ATOM     41  O   UNL     1       0.000   0.000   0.000  0.00  0.00    -0.221 OA
ENDBRANCH  30  39
BRANCH   1  44
ATOM     42  C   UNL     1       0.000   0.000   0.000  0.00  0.00    +0.265 C 
ATOM     43  O   UNL     1       0.000   0.000   0.000  0.00  0.00    -0.268 OA
ATOM     44  N   UNL     1       0.000   0.000   0.000  0.00  0.00    -0.194 NA
BRANCH  42  48
ATOM     45  C   UNL     1       0.000   0.000   0.000  0.00  0.00    +0.021 A 
ATOM     46  C   UNL     1       0.000   0.000   0.000  0.00  0.00    +0.002 A 
ATOM     47  C   UNL     1       0.000   0.000   0.000  0.00  0.00    +0.005 A 
ATOM     48  C   UNL     1       0.000   0.000   0.000  0.00  0.00    +0.055 A 
ATOM     49  C   UNL     1       0.000   0.000   0.000  0.00  0.00    +0.005 A 
ATOM     50  C   UNL     1       0.000   0.000   0.000  0.00  0.00    +0.002 A 
BRANCH  45  53
ATOM     51  C   UNL     1       0.000   0.000   0.000  0.00  0.00    +0.177 A 
ATOM     52  C   UNL     1       0.000   0.000   0.000  0.00  0.00    +0.063 A 
ATOM     53  C   UNL     1       0.000   0.000   0.000  0.00  0.00    +0.123 A 
ATOM     54  N   UNL     1       0.000   0.000   0.000  0.00  0.00    -0.077 NA
ATOM     55  O   UNL     1       0.000   0.000   0.000  0.00  0.00    -0.353 OA
BRANCH  51  59
ATOM     56  C   UNL     1       0.000   0.000   0.000  0.00  0.00    +0.139 A 
ATOM     57  C   UNL     1       0.000   0.000   0.000  0.00  0.00    +0.037 A 
ATOM     58  C   UNL     1       0.000   0.000   0.000  0.00  0.00    +0.006 A 
ATOM     59  C   UNL     1       0.000   0.000   0.000  0.00  0.00    +0.037 A 
ATOM     60  C   UNL     1       0.000   0.000   0.000  0.00  0.00    +0.006 A 
ATOM     61  C   UNL     1       0.000   0.000   0.000  0.00  0.00    +0.037 A 
BRANCH  56  62
ATOM     62  O   UNL     1       0.000   0.000   0.000  0.00  0.00    -0.475 OA
BRANCH  62  63
ATOM     63  C   UNL     1       0.000   0.000   0.000  0.00  0.00    +0.205 C 
BRANCH  63  64
ATOM     64  C   UNL     1       0.000   0.000   0.000  0.00  0.00    +0.047 C 
BRANCH  64  65
ATOM     65  C   UNL     1       0.000   0.000   0.000  0.00  0.00    +0.004 C 
BRANCH  65  67
ATOM     66  C   UNL     1       0.000   0.000   0.000  0.00  0.00    +0.000 C 
ATOM     67  C   UNL     1       0.000   0.000   0.000  0.00  0.00    +0.000 C 
ENDBRANCH  65  67
ENDBRANCH  64  65
ENDBRANCH  63  64
ENDBRANCH  62  63
ENDBRANCH  56  62
ENDBRANCH  51  59
ENDBRANCH  45  53
ENDBRANCH  42  48
ENDBRANCH   1  44
BRANCH  19  68
ATOM     68  C   UNL     1       0.000   0.000   0.000  0.00  0.00    +0.215 C 
ATOM     69  O   UNL     1       0.000   0.000   0.000  0.00  0.00    -0.218 OA
BRANCH  68  70
ATOM     70  C   UNL     1       0.000   0.000   0.000  0.00  0.00    +0.207 C 
ATOM     71  O   UNL     1       0.000   0.000   0.000  0.00  0.00    -0.215 OA
BRANCH  70  72
ATOM     72  C   UNL     1       0.000   0.000   0.000  0.00  0.00    +0.014 A 
ATOM     73  C   UNL     1       0.000   0.000   0.000  0.00  0.00    +0.042 A 
ATOM     74  C   UNL     1       0.000   0.000   0.000  0.00  0.00    +0.214 A 
ATOM     75  C   UNL     1       0.000   0.000   0.000  0.00  0.00    +0.232 A 
ATOM     76  C   UNL     1       0.000   0.000   0.000  0.00  0.00    +0.045 A 
ATOM     77  C   UNL     1       0.000   0.000   0.000  0.00  0.00    +0.002 A 
ATOM     78  O   UNL     1       0.000   0.000   0.000  0.00  0.00    -0.283 OA
BRANCH  74  79
ATOM     79  O   UNL     1       0.000   0.000   0.000  0.00  0.00    -0.319 OA
BRANCH  79  80
ATOM     80  S   UNL     1       0.000   0.000   0.000  0.00  0.00    +0.282 S 
ATOM     81  O   UNL     1       0.000   0.000   0.000  0.00  0.00    -0.105 OA
ATOM     82  O   UNL     1       0.000   0.000   0.000  0.00  0.00    -0.105 OA
ATOM     83  O   UNL     1       0.000   0.000   0.000  0.00  0.00    -0.012 OA
ENDBRANCH  79  80
ENDBRANCH  74  79
ENDBRANCH  70  72
ENDBRANCH  68  70
ENDBRANCH  19  68
BRANCH  15  84
ATOM     84  C   UNL     1       0.000   0.000   0.000  0.00  0.00    +0.190 C 
ATOM     85  O   UNL     1       0.000   0.000   0.000  0.00  0.00    -0.220 OA
BRANCH  84  86
ATOM     86  C   UNL     1       0.000   0.000   0.000  0.00  0.00    +0.124 C 
BRANCH  86  87
ATOM     87  C   UNL     1       0.000   0.000   0.000  0.00  0.00    +0.263 C 
ATOM     88  O   UNL     1       0.000   0.000   0.000  0.00  0.00    -0.272 OA
ATOM     89  N   UNL     1       0.000   0.000   0.000  0.00  0.00    -0.088 NA
ENDBRANCH  86  87
ENDBRANCH  84  86
ENDBRANCH  15  84
TORSDOF 18
