REMARK  Name = 
REMARK  18 active torsions:
REMARK  status: ('A' for Active; 'I' for Inactive)
REMARK    1  A    between atoms: C_2  and  C_3
REMARK    2  A    between atoms: C_3  and  C_4
REMARK    3  A    between atoms: C_4  and  C_5
REMARK    4  A    between atoms: C_5  and  O_6
REMARK    5  A    between atoms: O_6  and  C_7
REMARK    6  A    between atoms: C_10  and  C_13
REMARK    7  A    between atoms: C_15  and  C_18
REMARK    8  A    between atoms: C_21  and  C_24
REMARK    9  A    between atoms: N_26  and  C_27
REMARK   10  A    between atoms: C_41  and  C_80
REMARK   11  A    between atoms: C_45  and  C_64
REMARK   12  A    between atoms: C_56  and  C_60
REMARK   13  A    between atoms: C_64  and  C_65
REMARK   14  A    between atoms: C_65  and  C_66
REMARK   15  A    between atoms: C_68  and  O_73
REMARK   16  A    between atoms: O_73  and  S_74
REMARK   17  A    between atoms: C_80  and  C_81
REMARK   18  A    between atoms: C_81  and  C_82
REMARK                            x       y       z     vdW  Elec       q    Type
REMARK                         _______ _______ _______ _____ _____    ______ ____
ROOT
ATOM     27  C   UNL     1       0.000   0.000   0.000  0.00  0.00    +0.000 C 
ATOM     28  C   UNL     1       0.000   0.000   0.000  0.00  0.00    +0.000 C 
ATOM     29  C   UNL     1       0.000   0.000   0.000  0.00  0.00    +0.000 C 
ATOM     30  C   UNL     1       0.000   0.000   0.000  0.00  0.00    +0.000 C 
ATOM     31  N   UNL     1       0.000   0.000   0.000  0.00  0.00    +0.000 NA
ATOM     32  C   UNL     1       0.000   0.000   0.000  0.00  0.00    +0.000 C 
ATOM     33  O   UNL     1       0.000   0.000   0.000  0.00  0.00    +0.000 OA
ATOM     34  C   UNL     1       0.000   0.000   0.000  0.00  0.00    +0.000 C 
ATOM     35  C   UNL     1       0.000   0.000   0.000  0.00  0.00    +0.000 C 
ATOM     36  C   UNL     1       0.000   0.000   0.000  0.00  0.00    +0.000 C 
ATOM     37  C   UNL     1       0.000   0.000   0.000  0.00  0.00    +0.000 C 
ATOM     38  N   UNL     1       0.000   0.000   0.000  0.00  0.00    +0.000 N 
ATOM     39  C   UNL     1       0.000   0.000   0.000  0.00  0.00    +0.000 C 
ATOM     40  O   UNL     1       0.000   0.000   0.000  0.00  0.00    +0.000 OA
ATOM     41  C   UNL     1       0.000   0.000   0.000  0.00  0.00    +0.000 C 
ATOM     42  N   UNL     1       0.000   0.000   0.000  0.00  0.00    +0.000 NA
ATOM     43  C   UNL     1       0.000   0.000   0.000  0.00  0.00    +0.000 C 
ATOM     44  O   UNL     1       0.000   0.000   0.000  0.00  0.00    +0.000 OA
ATOM     45  C   UNL     1       0.000   0.000   0.000  0.00  0.00    +0.000 C 
ATOM     46  N   UNL     1       0.000   0.000   0.000  0.00  0.00    +0.000 NA
ATOM     47  C   UNL     1       0.000   0.000   0.000  0.00  0.00    +0.000 C 
ATOM     48  O   UNL     1       0.000   0.000   0.000  0.00  0.00    +0.000 OA
ATOM     49  C   UNL     1       0.000   0.000   0.000  0.00  0.00    +0.000 C 
ATOM     50  C   UNL     1       0.000   0.000   0.000  0.00  0.00    +0.000 C 
ATOM     51  C   UNL     1       0.000   0.000   0.000  0.00  0.00    +0.000 C 
ATOM     52  C   UNL     1       0.000   0.000   0.000  0.00  0.00    +0.000 C 
ATOM     53  N   UNL     1       0.000   0.000   0.000  0.00  0.00    +0.000 N 
ATOM     54  C   UNL     1       0.000   0.000   0.000  0.00  0.00    +0.000 C 
ATOM     55  O   UNL     1       0.000   0.000   0.000  0.00  0.00    +0.000 OA
ATOM     56  C   UNL     1       0.000   0.000   0.000  0.00  0.00    +0.000 C 
ATOM     57  N   UNL     1       0.000   0.000   0.000  0.00  0.00    +0.000 NA
ATOM     58  C   UNL     1       0.000   0.000   0.000  0.00  0.00    +0.000 C 
ATOM     59  O   UNL     1       0.000   0.000   0.000  0.00  0.00    +0.000 OA
ATOM     63  O   UNL     1       0.000   0.000   0.000  0.00  0.00    +0.000 OA
ATOM     86  C   UNL     1       0.000   0.000   0.000  0.00  0.00    +0.000 C 
ATOM     87  O   UNL     1       0.000   0.000   0.000  0.00  0.00    +0.000 OA
ATOM     88  O   UNL     1       0.000   0.000   0.000  0.00  0.00    +0.000 OA
ATOM     89  O   UNL     1       0.000   0.000   0.000  0.00  0.00    +0.000 OA
ENDROOT
BRANCH  56  60
ATOM     60  C   UNL     1       0.000   0.000   0.000  0.00  0.00    +0.000 C 
ATOM     61  C   UNL     1       0.000   0.000   0.000  0.00  0.00    +0.000 C 
ATOM     62  O   UNL     1       0.000   0.000   0.000  0.00  0.00    +0.000 OA
ENDBRANCH  56  60
BRANCH  27  26
ATOM     24  C   UNL     1       0.000   0.000   0.000  0.00  0.00    +0.000 C 
ATOM     25  O   UNL     1       0.000   0.000   0.000  0.00  0.00    +0.000 OA
ATOM     26  N   UNL     1       0.000   0.000   0.000  0.00  0.00    +0.000 NA
BRANCH  24  21
ATOM     18  C   UNL     1       0.000   0.000   0.000  0.00  0.00    +0.000 A 
ATOM     19  C   UNL     1       0.000   0.000   0.000  0.00  0.00    +0.000 A 
ATOM     20  C   UNL     1       0.000   0.000   0.000  0.00  0.00    +0.000 A 
ATOM     21  C   UNL     1       0.000   0.000   0.000  0.00  0.00    +0.000 A 
ATOM     22  C   UNL     1       0.000   0.000   0.000  0.00  0.00    +0.000 A 
ATOM     23  C   UNL     1       0.000   0.000   0.000  0.00  0.00    +0.000 A 
BRANCH  18  15
ATOM     13  C   UNL     1       0.000   0.000   0.000  0.00  0.00    +0.000 A 
ATOM     14  C   UNL     1       0.000   0.000   0.000  0.00  0.00    +0.000 A 
ATOM     15  C   UNL     1       0.000   0.000   0.000  0.00  0.00    +0.000 A 
ATOM     16  N   UNL     1       0.000   0.000   0.000  0.00  0.00    +0.000 NA
ATOM     17  O   UNL     1       0.000   0.000   0.000  0.00  0.00    +0.000 OA
BRANCH  13  10
ATOM      7  C   UNL     1       0.000   0.000   0.000  0.00  0.00    +0.000 A 
ATOM      8  C   UNL     1       0.000   0.000   0.000  0.00  0.00    +0.000 A 
ATOM      9  C   UNL     1       0.000   0.000   0.000  0.00  0.00    +0.000 A 
ATOM     10  C   UNL     1       0.000   0.000   0.000  0.00  0.00    +0.000 A 
ATOM     11  C   UNL     1       0.000   0.000   0.000  0.00  0.00    +0.000 A 
ATOM     12  C   UNL     1       0.000   0.000   0.000  0.00  0.00    +0.000 A 
BRANCH   7   6
ATOM      6  O   UNL     1       0.000   0.000   0.000  0.00  0.00    +0.000 OA
BRANCH   6   5
ATOM      5  C   UNL     1       0.000   0.000   0.000  0.00  0.00    +0.000 C 
BRANCH   5   4
ATOM      4  C   UNL     1       0.000   0.000   0.000  0.00  0.00    +0.000 C 
BRANCH   4   3
ATOM      3  C   UNL     1       0.000   0.000   0.000  0.00  0.00    +0.000 C 
BRANCH   3   2
ATOM      1  C   UNL     1       0.000   0.000   0.000  0.00  0.00    +0.000 C 
ATOM      2  C   UNL     1       0.000   0.000   0.000  0.00  0.00    +0.000 C 
ENDBRANCH   3   2
ENDBRANCH   4   3
ENDBRANCH   5   4
ENDBRANCH   6   5
ENDBRANCH   7   6
ENDBRANCH  13  10
ENDBRANCH  18  15
ENDBRANCH  24  21
ENDBRANCH  27  26
BRANCH  45  64
ATOM     64  C   UNL     1       0.000   0.000   0.000  0.00  0.00    +0.000 C 
ATOM     79  O   UNL     1       0.000   0.000   0.000  0.00  0.00    +0.000 OA
BRANCH  64  65
ATOM     65  C   UNL     1       0.000   0.000   0.000  0.00  0.00    +0.000 C 
ATOM     78  O   UNL     1       0.000   0.000   0.000  0.00  0.00    +0.000 OA
BRANCH  65  66
ATOM     66  C   UNL     1       0.000   0.000   0.000  0.00  0.00    +0.000 A 
ATOM     67  C   UNL     1       0.000   0.000   0.000  0.00  0.00    +0.000 A 
ATOM     68  C   UNL     1       0.000   0.000   0.000  0.00  0.00    +0.000 A 
ATOM     69  C   UNL     1       0.000   0.000   0.000  0.00  0.00    +0.000 A 
ATOM     70  C   UNL     1       0.000   0.000   0.000  0.00  0.00    +0.000 A 
ATOM     71  C   UNL     1       0.000   0.000   0.000  0.00  0.00    +0.000 A 
ATOM     72  O   UNL     1       0.000   0.000   0.000  0.00  0.00    +0.000 OA
BRANCH  68  73
ATOM     73  O   UNL     1       0.000   0.000   0.000  0.00  0.00    +0.000 OA
BRANCH  73  74
ATOM     74  S   UNL     1       0.000   0.000   0.000  0.00  0.00    +0.000 S 
ATOM     75  O   UNL     1       0.000   0.000   0.000  0.00  0.00    +0.000 OA
ATOM     76  O   UNL     1       0.000   0.000   0.000  0.00  0.00    +0.000 OA
ATOM     77  O   UNL     1       0.000   0.000   0.000  0.00  0.00    +0.000 OA
ENDBRANCH  73  74
ENDBRANCH  68  73
ENDBRANCH  65  66
ENDBRANCH  64  65
ENDBRANCH  45  64
BRANCH  41  80
ATOM     80  C   UNL     1       0.000   0.000   0.000  0.00  0.00    +0.000 C 
ATOM     85  O   UNL     1       0.000   0.000   0.000  0.00  0.00    +0.000 OA
BRANCH  80  81
ATOM     81  C   UNL     1       0.000   0.000   0.000  0.00  0.00    +0.000 C 
BRANCH  81  82
ATOM     82  C   UNL     1       0.000   0.000   0.000  0.00  0.00    +0.000 C 
ATOM     83  O   UNL     1       0.000   0.000   0.000  0.00  0.00    +0.000 OA
ATOM     84  N   UNL     1       0.000   0.000   0.000  0.00  0.00    +0.000 NA
ENDBRANCH  81  82
ENDBRANCH  80  81
ENDBRANCH  41  80
TORSDOF 18
