REMARK  Name = 
REMARK  16 active torsions:
REMARK  status: ('A' for Active; 'I' for Inactive)
REMARK    1  A    between atoms: C_1  and  C_2
REMARK    2  A    between atoms: C_2  and  C_3
REMARK    3  A    between atoms: C_2  and  CA_12
REMARK    4  A    between atoms: C_3  and  C_4
REMARK    5  A    between atoms: C_3  and  O_11
REMARK    6  A    between atoms: C_7  and  O_10
REMARK    7  A    between atoms: CA_12  and  C_13
REMARK    8  A    between atoms: CA_12  and  N_35
REMARK    9  A    between atoms: N_15  and  CA_16
REMARK   10  A    between atoms: CA_16  and  C_17
REMARK   11  A    between atoms: CA_16  and  C_32
REMARK   12  A    between atoms: C_18  and  O_31
REMARK   13  A    between atoms: C_19  and  O_30
REMARK   14  A    between atoms: C_20  and  N_22
REMARK   15  A    between atoms: CA_24  and  C_28
REMARK   16  A    between atoms: C_32  and  OXT_34
REMARK                            x       y       z     vdW  Elec       q    Type
REMARK                         _______ _______ _______ _____ _____    ______ ____
ROOT
ATOM      1  CA  UNL     1       0.407   3.022   2.678  0.00  0.00    +0.213 C 
ENDROOT
BRANCH   1   2
ATOM      2  C   UNL     1       0.394   4.561   2.644  0.00  0.00    +0.183 C 
ATOM      3  C   UNL     1      -0.250   5.203   1.411  0.00  0.00    +0.178 C 
ATOM      4  C   UNL     1       0.576   6.473   1.166  0.00  0.00    +0.195 C 
ATOM      5  C   UNL     1       1.557   6.525   2.349  0.00  0.00    +0.255 C 
ATOM      6  O   UNL     1       1.691   5.154   2.781  0.00  0.00    -0.345 OA
BRANCH   5   7
ATOM      7  N   UNL     1       1.158   7.355   3.469  0.00  0.00    -0.270 N 
ATOM      8  C   UNL     1      -0.092   7.489   4.039  0.00  0.00    +0.122 A 
ATOM      9  CA  UNL     1      -0.032   8.400   5.008  0.00  0.00    +0.099 A 
ATOM     10  N   UNL     1       1.253   8.872   5.101  0.00  0.00    -0.304 N 
ATOM     11  C   UNL     1       2.044   8.236   4.128  0.00  0.00    +0.329 A 
ATOM     12  O   UNL     1       3.224   8.440   3.918  0.00  0.00    -0.246 OA
ATOM     13  H   UNL     1       1.610   9.580   5.724  0.00  0.00    +0.171 HD
BRANCH   9  14
ATOM     14  C   UNL     1      -1.166   8.846   5.838  0.00  0.00    +0.278 C 
ATOM     15  O   UNL     1      -2.298   8.409   5.692  0.00  0.00    -0.294 OA
ENDBRANCH   9  14
ENDBRANCH   5   7
BRANCH   4  16
ATOM     16  O   UNL     1      -0.216   7.643   0.982  0.00  0.00    -0.385 OA
ATOM     17  H   UNL     1      -1.097   7.431   1.353  0.00  0.00    +0.210 HD
ENDBRANCH   4  16
BRANCH   3  18
ATOM     18  O   UNL     1      -1.626   5.541   1.607  0.00  0.00    -0.386 OA
ATOM     19  H   UNL     1      -2.014   4.989   2.318  0.00  0.00    +0.210 HD
ENDBRANCH   3  18
ENDBRANCH   1   2
BRANCH   1  22
ATOM     20  C   UNL     1       2.358   2.054   1.475  0.00  0.00    +0.231 C 
ATOM     21  O   UNL     1       3.075   2.160   2.463  0.00  0.00    -0.274 OA
ATOM     22  N   UNL     1       1.008   2.361   1.506  0.00  0.00    -0.299 N 
ATOM     23  H   UNL     1       0.501   2.374   0.628  0.00  0.00    +0.150 HD
BRANCH  20  24
ATOM     24  CA  UNL     1       2.867   1.455   0.137  0.00  0.00    +0.143 C 
BRANCH  24  25
ATOM     25  N   UNL     1       2.194   0.151  -0.055  0.00  0.00    -0.320 NA
ATOM     26  H1  UNL     1       1.186   0.235   0.019  0.00  0.00    +0.119 HD
ATOM     27  H2  UNL     1       2.494  -0.472   0.703  0.00  0.00    +0.119 HD
ENDBRANCH  24  25
BRANCH  24  29
ATOM     28  C   UNL     1       3.272   3.772  -0.786  0.00  0.00    +0.012 C 
ATOM     29  C   UNL     1       2.653   2.391  -1.080  0.00  0.00    +0.046 C 
BRANCH  29  30
ATOM     30  C   UNL     1       3.257   1.771  -2.370  0.00  0.00    +0.168 C 
BRANCH  30  31
ATOM     31  C   UNL     1       2.906   2.577  -3.616  0.00  0.00    +0.070 A 
ATOM     32  N   UNL     1       3.828   3.494  -4.024  0.00  0.00    -0.254 NA
ATOM     33  C   UNL     1       3.508   4.262  -5.092  0.00  0.00    +0.156 A 
ATOM     34  C   UNL     1       2.310   4.156  -5.779  0.00  0.00    +0.135 A 
ATOM     35  C   UNL     1       1.388   3.208  -5.363  0.00  0.00    +0.049 A 
ATOM     36  C   UNL     1       1.686   2.401  -4.266  0.00  0.00    +0.029 A 
BRANCH  34  37
ATOM     37  O   UNL     1       1.993   4.940  -6.845  0.00  0.00    -0.505 OA
ATOM     38  H   UNL     1       2.738   5.532  -7.042  0.00  0.00    +0.292 HD
ENDBRANCH  34  37
ENDBRANCH  30  31
BRANCH  30  39
ATOM     39  O   UNL     1       4.684   1.705  -2.236  0.00  0.00    -0.385 OA
ATOM     40  H   UNL     1       5.028   2.398  -2.839  0.00  0.00    +0.210 HD
ENDBRANCH  30  39
ENDBRANCH  29  30
ENDBRANCH  24  29
ENDBRANCH  20  24
ENDBRANCH   1  22
BRANCH   1  41
ATOM     41  C   UNL     1      -1.031   2.529   2.866  0.00  0.00    +0.328 C 
ATOM     42  O   UNL     1      -1.920   3.177   3.399  0.00  0.00    -0.249 OA
BRANCH  41  43
ATOM     43  OXT UNL     1      -1.229   1.272   2.399  0.00  0.00    -0.479 OA
ATOM     44  HXT UNL     1      -0.381   0.869   2.121  0.00  0.00    +0.295 HD
ENDBRANCH  41  43
ENDBRANCH   1  41
TORSDOF 15
