REMARK  Name = 456557
REMARK  15 active torsions:
REMARK  status: ('A' for Active; 'I' for Inactive)
REMARK    1  A    between atoms: O_2  and  C_17
REMARK    2  A    between atoms: O_3  and  C_18
REMARK    3  A    between atoms: O_4  and  C_22
REMARK    4  A    between atoms: O_7  and  C_27
REMARK    5  A    between atoms: O_10  and  C_35
REMARK    6  A    between atoms: N_11  and  C_19
REMARK    7  A    between atoms: N_12  and  CA_20
REMARK    8  A    between atoms: N_13  and  CA_21
REMARK    9  A    between atoms: C_16  and  CA_20
REMARK   10  A    between atoms: CA_20  and  C_22
REMARK   11  A    between atoms: CA_21  and  C_23
REMARK   12  A    between atoms: CA_21  and  C_24
REMARK   13  A    between atoms: C_23  and  C_27
REMARK   14  A    between atoms: C_23  and  C_28
REMARK   15  A    between atoms: C_27  and  C_30
REMARK                            x       y       z     vdW  Elec       q    Type
REMARK                         _______ _______ _______ _____ _____    ______ ____
ROOT
ATOM      1  CA  UNL     1       5.436  -0.957  -6.633  0.00  0.00    +0.213 C 
ENDROOT
BRANCH   1   3
ATOM      2  O   UNL     1       7.403  -2.129  -7.568  0.00  0.00    -0.345 OA
ATOM      3  C   UNL     1       6.889  -1.436  -6.392  0.00  0.00    +0.183 C 
ATOM      4  C   UNL     1       7.884  -0.302  -6.142  0.00  0.00    +0.178 C 
ATOM      5  C   UNL     1       8.388   0.043  -7.539  0.00  0.00    +0.195 C 
ATOM      6  C   UNL     1       8.478  -1.357  -8.148  0.00  0.00    +0.255 C 
BRANCH   6   9
ATOM      7  O   UNL     1       6.128  -1.243  -9.739  0.00  0.00    -0.246 OA
ATOM      8  O   UNL     1       8.349  -2.674 -13.405  0.00  0.00    -0.268 OA
ATOM      9  N   UNL     1       8.431  -1.461  -9.610  0.00  0.00    -0.271 N 
ATOM     10  N   UNL     1       7.263  -1.786 -11.609  0.00  0.00    -0.275 N 
ATOM     11  C   UNL     1       7.215  -1.462 -10.277  0.00  0.00    +0.331 A 
ATOM     12  C   UNL     1       9.622  -1.604 -10.302  0.00  0.00    +0.098 A 
ATOM     13  C   UNL     1       9.655  -1.924 -11.598  0.00  0.00    +0.088 A 
ATOM     14  C   UNL     1       8.382  -2.163 -12.294  0.00  0.00    +0.254 A 
ATOM     15  H   UNL     1       6.382  -1.942 -12.074  0.00  0.00    +0.173 HD
ENDBRANCH   6   9
BRANCH   4  16
ATOM     16  O   UNL     1       9.049  -0.757  -5.410  0.00  0.00    -0.386 OA
ATOM     17  H   UNL     1       8.924  -1.695  -5.169  0.00  0.00    +0.210 HD
ENDBRANCH   4  16
BRANCH   5  18
ATOM     18  O   UNL     1       9.657   0.693  -7.467  0.00  0.00    -0.385 OA
ATOM     19  H   UNL     1      10.047   0.420  -6.605  0.00  0.00    +0.210 HD
ENDBRANCH   5  18
ENDBRANCH   1   3
BRANCH   1  21
ATOM     20  O   UNL     1       5.594  -1.386  -3.789  0.00  0.00    -0.274 OA
ATOM     21  N   UNL     1       4.811  -0.164  -5.556  0.00  0.00    -0.299 N 
ATOM     22  C   UNL     1       4.829  -0.536  -4.224  0.00  0.00    +0.231 C 
ATOM     23  H   UNL     1       4.051   0.472  -5.787  0.00  0.00    +0.150 HD
BRANCH  22  24
ATOM     24  CA  UNL     1       3.764   0.176  -3.329  0.00  0.00    +0.143 C 
BRANCH  24  25
ATOM     25  N   UNL     1       3.574   1.557  -3.865  0.00  0.00    -0.320 NA
ATOM     26  H1  UNL     1       2.928   2.054  -3.249  0.00  0.00    +0.119 HD
ATOM     27  H2  UNL     1       4.460   2.054  -3.754  0.00  0.00    +0.119 HD
ENDBRANCH  24  25
BRANCH  24  28
ATOM     28  C   UNL     1       2.413  -0.595  -3.279  0.00  0.00    +0.046 C 
ATOM     29  C   UNL     1       1.365   0.070  -2.355  0.00  0.00    +0.012 C 
BRANCH  28  30
ATOM     30  C   UNL     1       2.599  -2.107  -2.953  0.00  0.00    +0.168 C 
BRANCH  30  32
ATOM     31  N   UNL     1       3.164  -1.659  -0.578  0.00  0.00    -0.254 NA
ATOM     32  C   UNL     1       3.345  -2.445  -1.670  0.00  0.00    +0.070 A 
ATOM     33  C   UNL     1       4.150  -3.586  -1.627  0.00  0.00    +0.029 A 
ATOM     34  C   UNL     1       4.773  -3.937  -0.431  0.00  0.00    +0.049 A 
ATOM     35  C   UNL     1       3.767  -2.030   0.572  0.00  0.00    +0.156 A 
ATOM     36  C   UNL     1       4.566  -3.153   0.690  0.00  0.00    +0.135 A 
BRANCH  36  37
ATOM     37  O   UNL     1       5.147  -3.524   1.864  0.00  0.00    -0.505 OA
ATOM     38  H   UNL     1       4.801  -2.957   2.573  0.00  0.00    +0.292 HD
ENDBRANCH  36  37
ENDBRANCH  30  32
BRANCH  30  39
ATOM     39  O   UNL     1       1.314  -2.746  -2.911  0.00  0.00    -0.385 OA
ATOM     40  H   UNL     1       1.310  -3.411  -3.620  0.00  0.00    +0.210 HD
ENDBRANCH  30  39
ENDBRANCH  28  30
ENDBRANCH  24  28
ENDBRANCH  22  24
ENDBRANCH   1  21
BRANCH   1  42
ATOM     41  OXT UNL     1       3.832  -2.740  -6.103  0.00  0.00    -0.249 OA
ATOM     42  C   UNL     1       4.538  -2.175  -6.930  0.00  0.00    +0.328 C 
BRANCH  42  43
ATOM     43  O   UNL     1       4.561  -2.586  -8.218  0.00  0.00    -0.479 OA
ATOM     44  H   UNL     1       5.189  -2.078  -8.789  0.00  0.00    +0.295 HD
ENDBRANCH  42  43
ENDBRANCH   1  42
TORSDOF 14
