REMARK  Name = 456557
REMARK  15 active torsions:
REMARK  status: ('A' for Active; 'I' for Inactive)
REMARK    1  A    between atoms: O_2  and  C_17
REMARK    2  A    between atoms: O_3  and  C_18
REMARK    3  A    between atoms: O_4  and  C_22
REMARK    4  A    between atoms: O_7  and  C_27
REMARK    5  A    between atoms: O_10  and  C_35
REMARK    6  A    between atoms: N_11  and  C_19
REMARK    7  A    between atoms: N_12  and  CA_20
REMARK    8  A    between atoms: N_13  and  CA_21
REMARK    9  A    between atoms: C_16  and  CA_20
REMARK   10  A    between atoms: CA_20  and  C_22
REMARK   11  A    between atoms: CA_21  and  C_23
REMARK   12  A    between atoms: CA_21  and  C_24
REMARK   13  A    between atoms: C_23  and  C_27
REMARK   14  A    between atoms: C_23  and  C_28
REMARK   15  A    between atoms: C_27  and  C_30
REMARK                            x       y       z     vdW  Elec       q    Type
REMARK                         _______ _______ _______ _____ _____    ______ ____
ROOT
ATOM     20  CA  UNL     1       0.964   0.061  -0.305  0.00  0.00    +0.000 C 
ENDROOT
BRANCH  20  16
ATOM      1  O   UNL     1       2.956  -0.512  -1.522  0.00  0.00    +0.000 OA
ATOM     16  C   UNL     1       1.688  -1.038  -1.072  0.00  0.00    +0.000 C 
ATOM     17  C   UNL     1       2.020  -2.251  -0.215  0.00  0.00    +0.000 C 
ATOM     18  C   UNL     1       3.354  -1.861   0.384  0.00  0.00    +0.000 C 
ATOM     19  C   UNL     1       4.014  -1.125  -0.769  0.00  0.00    +0.000 C 
BRANCH  19  11
ATOM      8  O   UNL     1       6.734  -0.967  -1.515  0.00  0.00    +0.000 OA
ATOM      9  O   UNL     1       7.395   2.832   1.011  0.00  0.00    +0.000 OA
ATOM     11  N   UNL     1       4.920  -0.105  -0.321  0.00  0.00    +0.000 N 
ATOM     14  N   UNL     1       7.061   0.924  -0.256  0.00  0.00    +0.000 N 
ATOM     25  C   UNL     1       6.266  -0.117  -0.754  0.00  0.00    +0.000 A 
ATOM     26  C   UNL     1       4.471   0.893   0.536  0.00  0.00    +0.000 A 
ATOM     29  C   UNL     1       5.241   1.879   1.003  0.00  0.00    +0.000 A 
ATOM     31  C   UNL     1       6.660   1.939   0.599  0.00  0.00    +0.000 A 
ATOM     41  H   UNL     1       8.033   0.935  -0.554  0.00  0.00    +0.000 HD
ENDBRANCH  19  11
BRANCH  17   2
ATOM      2  O   UNL     1       2.176  -3.373  -1.084  0.00  0.00    +0.000 OA
ATOM     37  H   UNL     1       1.304  -3.567  -1.468  0.00  0.00    +0.000 HD
ENDBRANCH  17   2
BRANCH  18   3
ATOM      3  O   UNL     1       4.099  -2.983   0.810  0.00  0.00    +0.000 OA
ATOM     38  H   UNL     1       3.555  -3.469   1.453  0.00  0.00    +0.000 HD
ENDBRANCH  18   3
ENDBRANCH  20  16
BRANCH  20  12
ATOM      6  O   UNL     1      -0.382   0.927   2.080  0.00  0.00    +0.000 OA
ATOM     12  N   UNL     1      -0.304  -0.418   0.193  0.00  0.00    +0.000 N 
ATOM     24  C   UNL     1      -0.879   0.062   1.362  0.00  0.00    +0.000 C 
ATOM     36  H   UNL     1      -0.827  -1.072  -0.384  0.00  0.00    +0.000 HD
BRANCH  24  21
ATOM     21  CA  UNL     1      -2.218  -0.612   1.663  0.00  0.00    +0.000 C 
BRANCH  21  13
ATOM     13  N   UNL     1      -2.344  -0.741   3.115  0.00  0.00    +0.000 NA
ATOM     39  H1  UNL     1      -3.202  -1.239   3.345  0.00  0.00    +0.000 HD
ATOM     40  H2  UNL     1      -1.582  -1.316   3.474  0.00  0.00    +0.000 HD
ENDBRANCH  21  13
BRANCH  21  23
ATOM     23  C   UNL     1      -3.404   0.158   1.014  0.00  0.00    +0.000 C 
ATOM     28  C   UNL     1      -3.429   1.637   1.447  0.00  0.00    +0.000 C 
BRANCH  23  27
ATOM     27  C   UNL     1      -4.779  -0.513   1.294  0.00  0.00    +0.000 C 
BRANCH  27  30
ATOM     15  N   UNL     1      -5.617  -0.330  -0.989  0.00  0.00    +0.000 NA
ATOM     30  C   UNL     1      -5.867  -0.112   0.322  0.00  0.00    +0.000 A 
ATOM     32  C   UNL     1      -7.039   0.446   0.805  0.00  0.00    +0.000 A 
ATOM     33  C   UNL     1      -8.019   0.803  -0.115  0.00  0.00    +0.000 A 
ATOM     34  C   UNL     1      -6.592   0.030  -1.854  0.00  0.00    +0.000 A 
ATOM     35  C   UNL     1      -7.799   0.594  -1.472  0.00  0.00    +0.000 A 
BRANCH  35  10
ATOM     10  O   UNL     1      -8.735   0.934  -2.391  0.00  0.00    +0.000 OA
ATOM     44  H   UNL     1      -9.505   1.312  -1.931  0.00  0.00    +0.000 HD
ENDBRANCH  35  10
ENDBRANCH  27  30
BRANCH  27   7
ATOM      7  O   UNL     1      -4.663  -1.936   1.214  0.00  0.00    +0.000 OA
ATOM     43  H   UNL     1      -5.554  -2.319   1.290  0.00  0.00    +0.000 HD
ENDBRANCH  27   7
ENDBRANCH  23  27
ENDBRANCH  21  23
ENDBRANCH  24  21
ENDBRANCH  20  12
BRANCH  20  22
ATOM      5  OXT UNL     1       1.744   1.910  -1.654  0.00  0.00    +0.000 OA
ATOM     22  C   UNL     1       0.795   1.293  -1.179  0.00  0.00    +0.000 C 
BRANCH  22   4
ATOM      4  O   UNL     1      -0.489   1.669  -1.386  0.00  0.00    +0.000 OA
ATOM     42  H   UNL     1      -0.551   2.470  -1.949  0.00  0.00    +0.000 HD
ENDBRANCH  22   4
ENDBRANCH  20  22
TORSDOF 14
