456557
  -OEChem-10082520213D

 60 62  0     1  0  0  0  0  0999 V2000
    2.9556   -0.5116   -1.5224 O   0  0  0  0  0  0  0  0  0  0  0  0
    2.1763   -3.3733   -1.0836 O   0  0  0  0  0  0  0  0  0  0  0  0
    4.0995   -2.9831    0.8105 O   0  0  0  0  0  0  0  0  0  0  0  0
   -0.4892    1.6693   -1.3861 O   0  0  0  0  0  0  0  0  0  0  0  0
    1.7435    1.9097   -1.6538 O   0  0  0  0  0  0  0  0  0  0  0  0
   -0.3817    0.9269    2.0802 O   0  0  0  0  0  0  0  0  0  0  0  0
   -4.6631   -1.9362    1.2137 O   0  0  0  0  0  0  0  0  0  0  0  0
    6.7338   -0.9671   -1.5146 O   0  0  0  0  0  0  0  0  0  0  0  0
    7.3950    2.8317    1.0107 O   0  0  0  0  0  0  0  0  0  0  0  0
   -8.7354    0.9342   -2.3913 O   0  0  0  0  0  0  0  0  0  0  0  0
    4.9195   -0.1047   -0.3214 N   0  0  0  0  0  0  0  0  0  0  0  0
   -0.3040   -0.4183    0.1928 N   0  0  0  0  0  0  0  0  0  0  0  0
   -2.3435   -0.7410    3.1153 N   0  0  0  0  0  0  0  0  0  0  0  0
    7.0612    0.9242   -0.2558 N   0  0  0  0  0  0  0  0  0  0  0  0
   -5.6172   -0.3297   -0.9891 N   0  0  0  0  0  0  0  0  0  0  0  0
    1.6878   -1.0375   -1.0723 C   0  0  1  0  0  0  0  0  0  0  0  0
    2.0198   -2.2513   -0.2152 C   0  0  2  0  0  0  0  0  0  0  0  0
    3.3542   -1.8610    0.3842 C   0  0  2  0  0  0  0  0  0  0  0  0
    4.0143   -1.1246   -0.7687 C   0  0  1  0  0  0  0  0  0  0  0  0
    0.9638    0.0611   -0.3055 C   0  0  1  0  0  0  0  0  0  0  0  0
   -2.2183   -0.6119    1.6635 C   0  0  1  0  0  0  0  0  0  0  0  0
    0.7955    1.2931   -1.1790 C   0  0  0  0  0  0  0  0  0  0  0  0
   -3.4036    0.1583    1.0143 C   0  0  1  0  0  0  0  0  0  0  0  0
   -0.8793    0.0622    1.3617 C   0  0  0  0  0  0  0  0  0  0  0  0
    6.2663   -0.1166   -0.7542 C   0  0  0  0  0  0  0  0  0  0  0  0
    4.4714    0.8932    0.5363 C   0  0  0  0  0  0  0  0  0  0  0  0
   -4.7793   -0.5129    1.2944 C   0  0  1  0  0  0  0  0  0  0  0  0
   -3.4290    1.6375    1.4468 C   0  0  0  0  0  0  0  0  0  0  0  0
    5.2410    1.8788    1.0028 C   0  0  0  0  0  0  0  0  0  0  0  0
   -5.8669   -0.1117    0.3216 C   0  0  0  0  0  0  0  0  0  0  0  0
    6.6604    1.9387    0.5994 C   0  0  0  0  0  0  0  0  0  0  0  0
   -7.0393    0.4460    0.8055 C   0  0  0  0  0  0  0  0  0  0  0  0
   -8.0186    0.8030   -0.1148 C   0  0  0  0  0  0  0  0  0  0  0  0
   -6.5921    0.0300   -1.8539 C   0  0  0  0  0  0  0  0  0  0  0  0
   -7.7986    0.5943   -1.4718 C   0  0  0  0  0  0  0  0  0  0  0  0
    1.1189   -1.3147   -1.9683 H   0  0  0  0  0  0  0  0  0  0  0  0
    1.2736   -2.5203    0.5372 H   0  0  0  0  0  0  0  0  0  0  0  0
    3.1804   -1.2317    1.2619 H   0  0  0  0  0  0  0  0  0  0  0  0
    4.5264   -1.8280   -1.4350 H   0  0  0  0  0  0  0  0  0  0  0  0
    1.5298    0.3964    0.5638 H   0  0  0  0  0  0  0  0  0  0  0  0
   -0.8266   -1.0718   -0.3836 H   0  0  0  0  0  0  0  0  0  0  0  0
    1.3043   -3.5670   -1.4681 H   0  0  0  0  0  0  0  0  0  0  0  0
   -2.1834   -1.6274    1.2490 H   0  0  0  0  0  0  0  0  0  0  0  0
   -3.2187    0.1450   -0.0690 H   0  0  0  0  0  0  0  0  0  0  0  0
    3.5554   -3.4694    1.4531 H   0  0  0  0  0  0  0  0  0  0  0  0
    3.4384    0.8701    0.8384 H   0  0  0  0  0  0  0  0  0  0  0  0
   -5.0893   -0.2847    2.3216 H   0  0  0  0  0  0  0  0  0  0  0  0
   -4.2662    2.1652    0.9778 H   0  0  0  0  0  0  0  0  0  0  0  0
   -2.5190    2.1621    1.1410 H   0  0  0  0  0  0  0  0  0  0  0  0
   -3.5379    1.7382    2.5314 H   0  0  0  0  0  0  0  0  0  0  0  0
   -3.2023   -1.2388    3.3450 H   0  0  0  0  0  0  0  0  0  0  0  0
   -1.5818   -1.3162    3.4739 H   0  0  0  0  0  0  0  0  0  0  0  0
    8.0326    0.9353   -0.5537 H   0  0  0  0  0  0  0  0  0  0  0  0
    4.8563    2.6411    1.6690 H   0  0  0  0  0  0  0  0  0  0  0  0
   -0.5510    2.4703   -1.9487 H   0  0  0  0  0  0  0  0  0  0  0  0
   -5.5540   -2.3190    1.2897 H   0  0  0  0  0  0  0  0  0  0  0  0
   -7.2040    0.6064    1.8655 H   0  0  0  0  0  0  0  0  0  0  0  0
   -8.9478    1.2428    0.2367 H   0  0  0  0  0  0  0  0  0  0  0  0
   -6.3663   -0.1551   -2.8994 H   0  0  0  0  0  0  0  0  0  0  0  0
   -9.5045    1.3120   -1.9310 H   0  0  0  0  0  0  0  0  0  0  0  0
  1 16  1  0  0  0  0
  1 19  1  0  0  0  0
  2 17  1  0  0  0  0
  2 42  1  0  0  0  0
  3 18  1  0  0  0  0
  3 45  1  0  0  0  0
  4 22  1  0  0  0  0
  4 55  1  0  0  0  0
  5 22  2  0  0  0  0
  6 24  2  0  0  0  0
  7 27  1  0  0  0  0
  7 56  1  0  0  0  0
  8 25  2  0  0  0  0
  9 31  2  0  0  0  0
 10 35  1  0  0  0  0
 10 60  1  0  0  0  0
 11 19  1  0  0  0  0
 11 25  1  0  0  0  0
 11 26  1  0  0  0  0
 12 20  1  0  0  0  0
 12 24  1  0  0  0  0
 12 41  1  0  0  0  0
 13 21  1  0  0  0  0
 13 51  1  0  0  0  0
 13 52  1  0  0  0  0
 14 25  1  0  0  0  0
 14 31  1  0  0  0  0
 14 53  1  0  0  0  0
 15 30  2  0  0  0  0
 15 34  1  0  0  0  0
 16 17  1  0  0  0  0
 16 20  1  0  0  0  0
 16 36  1  0  0  0  0
 17 18  1  0  0  0  0
 17 37  1  0  0  0  0
 18 19  1  0  0  0  0
 18 38  1  0  0  0  0
 19 39  1  0  0  0  0
 20 22  1  0  0  0  0
 20 40  1  0  0  0  0
 21 23  1  0  0  0  0
 21 24  1  0  0  0  0
 21 43  1  0  0  0  0
 23 27  1  0  0  0  0
 23 28  1  0  0  0  0
 23 44  1  0  0  0  0
 26 29  2  0  0  0  0
 26 46  1  0  0  0  0
 27 30  1  0  0  0  0
 27 47  1  0  0  0  0
 28 48  1  0  0  0  0
 28 49  1  0  0  0  0
 28 50  1  0  0  0  0
 29 31  1  0  0  0  0
 29 54  1  0  0  0  0
 30 32  1  0  0  0  0
 32 33  2  0  0  0  0
 32 57  1  0  0  0  0
 33 35  1  0  0  0  0
 33 58  1  0  0  0  0
 34 35  2  0  0  0  0
 34 59  1  0  0  0  0
M  END
> <PUBCHEM_COMPOUND_CID>
456557

> <PUBCHEM_CONFORMER_RMSD>
1

> <PUBCHEM_CONFORMER_DIVERSEORDER>
1
226
164
183
186
247
58
87
284
245
255
28
196
275
93
203
125
37
239
219
154
205
55
16
176
268
151
271
160
57
251
120
171
191
82
227
267
24
192
230
109
181
195
41
263
145
134
272
51
97
194
117
167
180
83
259
216
149
15
148
142
43
276
124
161
70
2
282
115
214
153
290
204
270
283
262
208
258
187
209
34
67
13
265
213
119
118
80
174
228
281
77
221
72
92
126
131
236
207
79
178
201
234
218
264
121
273
163
71
45
101
170
110
49
7
238
285
91
31
249
133
6
197
237
250
246
157
223
114
76
44
235
90
289
288
172
54
155
256
165
220
127
135
232
74
169
9
190
81
252
21
274
211
277
50
40
17
138
231
33
260
106
193
189
63
248
244
188
100
116
18
279
179
287
280
69
139
177
269
59
14
32
198
240
182
166
233
23
64
88
96
30
212
286
107
108
266
215
156
4
159
12
168
184
243
123
206
102
94
84
27
254
291
19
210
253
278
36
52
20
146
152
202
140
225
85
143
112
200
48
175
144
185
35
68
22
66
10
86
65
229
241
113
224
99
104
242
98
46
137
78
5
199
25
73
105
130
38
60
261
141
132
150
217
95
147
173
111
8
222
162
61
257
128
158
26
53
11
62
39
29
129
89
56
42
136
47
103
122
75
3

> <PUBCHEM_MMFF94_PARTIAL_CHARGES>
47
1 -0.56
10 -0.53
11 -0.47
12 -0.73
13 -0.99
14 -0.49
15 -0.62
16 0.28
17 0.28
18 0.28
19 0.58
2 -0.68
20 0.36
21 0.33
22 0.66
24 0.57
25 0.69
26 -0.04
27 0.42
29 -0.14
3 -0.68
30 0.17
31 0.62
32 -0.15
33 -0.15
34 0.16
35 0.08
4 -0.65
41 0.37
42 0.4
45 0.4
46 0.15
5 -0.57
51 0.36
52 0.36
53 0.37
54 0.15
55 0.5
56 0.4
57 0.15
58 0.15
59 0.15
6 -0.57
60 0.45
7 -0.68
8 -0.57
9 -0.57

> <PUBCHEM_EFFECTIVE_ROTOR_COUNT>
10

> <PUBCHEM_PHARMACOPHORE_FEATURES>
23
1 1 acceptor
1 10 donor
1 12 donor
1 13 cation
1 13 donor
1 14 donor
1 15 acceptor
1 2 acceptor
1 2 donor
1 28 hydrophobe
1 3 acceptor
1 3 donor
1 4 acceptor
1 5 acceptor
1 6 acceptor
1 7 acceptor
1 7 donor
1 8 acceptor
1 9 acceptor
3 4 5 22 anion
5 1 16 17 18 19 rings
6 11 14 25 26 29 31 rings
6 15 30 32 33 34 35 rings

> <PUBCHEM_HEAVY_ATOM_COUNT>
35

> <PUBCHEM_ATOM_DEF_STEREO_COUNT>
8

> <PUBCHEM_ATOM_UDEF_STEREO_COUNT>
0

> <PUBCHEM_BOND_DEF_STEREO_COUNT>
0

> <PUBCHEM_BOND_UDEF_STEREO_COUNT>
0

> <PUBCHEM_ISOTOPIC_ATOM_COUNT>
0

> <PUBCHEM_COMPONENT_COUNT>
1

> <PUBCHEM_CACTVS_TAUTO_COUNT>
18

> <PUBCHEM_CONFORMER_ID>
0006F76D00000001

> <PUBCHEM_MMFF94_ENERGY>
90.7377

> <PUBCHEM_FEATURE_SELFOVERLAP>
116.82

> <PUBCHEM_SHAPE_FINGERPRINT>
10006869 2 18261103055311655898
10165383 225 18412267264410400588
10280341 67 16371830874463540653
10533779 1 17701248377900914944
10835480 77 18409448098694026147
11443803 9 16988836212398439074
11475781 23 17386006139778026847
11796584 16 15430333455100783994
12144603 126 17203335490554043497
12373685 5 18336813260609138523
12522641 126 16128112065682087420
14429380 56 18201997750876822600
1454969 45 16630811014804076413
14675020 138 16660639640253286154
14856354 85 14189577459930511085
15183329 4 17603872182989306237
15276724 80 18270400474054388913
15328829 1 17561081457488368453
16991971 28 14979950411357360241
19302320 297 14634877418753793391
20465049 17 11743844647018324516
20511986 3 18261108590738835475
20554085 129 17603300462021557920
21223535 225 18188487961882154253
21315759 40 15841561734486167934
21859007 373 17022895757842315525
23522609 53 16414382042054179475
23559900 14 18411983602630568817
255183 451 17415576307228691646
3004659 81 16630238165615429475
3009799 131 17967253087729868461
3633792 109 18272938189386723307
4173938 306 18113612404502000281
4325135 7 16845296033795111545
4516262 110 18059011809247053120
5385378 56 14345788315056300793
57527293 21 16342323275774866147
57634706 306 18268987751772690840
6081469 158 17894913993330463502
8988823 20 18413389813256179034

> <PUBCHEM_SHAPE_MULTIPOLES>
636.69
23.87
2.39
2.08
19.79
0.81
0.25
-8.11
-7.74
-5.01
0.24
3.06
-0.14
1.35

> <PUBCHEM_SHAPE_SELFOVERLAP>
1350.276

> <PUBCHEM_SHAPE_VOLUME>
352

> <PUBCHEM_COORDINATE_TYPE>
2
5
10

$$$$
