
 OpenBabel10112516363D

 60 62  0  0  1  0  0  0  0  0999 V2000
    1.4483   -0.7425   -0.4422 C   0  0  0  0  0  0  0  0  0  0  0  0
    2.8352   -0.2544    0.0185 C   0  0  3  0  0  0  0  0  0  0  0  0
    3.3562    0.8274   -0.9740 C   0  0  3  0  0  0  0  0  0  0  0  0
    2.4522    2.0413   -1.0947 C   0  0  0  0  0  0  0  0  0  0  0  0
    2.2366    2.7751    0.0299 N   0  0  0  0  0  0  0  0  0  0  0  0
    1.4036    3.8296   -0.0576 C   0  0  0  0  0  0  0  0  0  0  0  0
    0.7787    4.2078   -1.2330 C   0  0  0  0  0  0  0  0  0  0  0  0
    1.0254    3.4749   -2.3803 C   0  0  0  0  0  0  0  0  0  0  0  0
    1.8738    2.3738   -2.3179 C   0  0  0  0  0  0  0  0  0  0  0  0
   -0.0755    5.2654   -1.3082 O   0  0  0  0  0  0  0  0  0  0  0  0
    4.6574    1.2850   -0.6097 O   0  0  0  0  0  0  0  0  0  0  0  0
    2.8235    0.1955    1.5092 C   0  0  3  0  0  0  0  0  0  0  0  0
    2.3829   -0.9557    2.4471 C   0  0  0  0  0  0  0  0  0  0  0  0
    3.1701   -1.7666    2.9297 O   0  0  0  0  0  0  0  0  0  0  0  0
    1.0382   -0.9815    2.7275 N   0  0  0  0  0  0  0  0  0  0  0  0
    0.4368   -1.9707    3.6289 C   0  0  3  0  0  0  0  0  0  0  0  0
    0.3553   -1.3808    5.0468 C   0  0  3  0  0  0  0  0  0  0  0  0
    1.7037   -1.0485    5.7028 C   0  0  3  0  0  0  0  0  0  0  0  0
    1.5175   -1.4066    7.1814 C   0  0  3  0  0  0  0  0  0  0  0  0
    0.0438   -1.8426    7.2950 C   0  0  3  0  0  0  0  0  0  0  0  0
   -0.3539   -2.2387    5.9633 O   0  0  0  0  0  0  0  0  0  0  0  0
   -0.8760   -0.8375    7.7844 N   0  0  0  0  0  0  0  0  0  0  0  0
   -0.8751    0.5270    7.5685 C   0  0  0  0  0  0  0  0  0  0  0  0
   -1.7945    1.0990    8.3424 C   0  0  0  0  0  0  0  0  0  0  0  0
   -2.4599    0.1138    9.0420 N   0  0  0  0  0  0  0  0  0  0  0  0
   -1.8938   -1.1341    8.7186 C   0  0  0  0  0  0  0  0  0  0  0  0
   -2.2195   -2.2042    9.1778 O   0  0  0  0  0  0  0  0  0  0  0  0
   -2.0009    2.5435    8.4681 C   0  0  0  0  0  0  0  0  0  0  0  0
   -1.3152    3.3518    7.8485 O   0  0  0  0  0  0  0  0  0  0  0  0
    1.9742   -0.4317    8.1077 O   0  0  0  0  0  0  0  0  0  0  0  0
    2.0720    0.3049    5.4464 O   0  0  0  0  0  0  0  0  0  0  0  0
   -0.9580   -2.3001    3.0536 C   0  0  0  0  0  0  0  0  0  0  0  0
   -1.2268   -2.2306    1.8590 O   0  0  0  0  0  0  0  0  0  0  0  0
   -1.8909   -2.7006    3.9462 O   0  0  0  0  0  0  0  0  0  0  0  0
    4.1426    0.6791    1.9815 N   0  0  0  0  0  0  0  0  0  0  0  0
    1.4406   -0.9637   -1.5156 H   0  0  0  0  0  0  0  0  0  0  0  0
    0.6791    0.0127   -0.2477 H   0  0  0  0  0  0  0  0  0  0  0  0
    1.1545   -1.6630    0.0710 H   0  0  0  0  0  0  0  0  0  0  0  0
    3.5171   -1.1154   -0.0556 H   0  0  0  0  0  0  0  0  0  0  0  0
    3.4719    0.3586   -1.9596 H   0  0  0  0  0  0  0  0  0  0  0  0
    1.2440    4.3576    0.8769 H   0  0  0  0  0  0  0  0  0  0  0  0
    0.5558    3.7533   -3.3196 H   0  0  0  0  0  0  0  0  0  0  0  0
    2.0749    1.7869   -3.2082 H   0  0  0  0  0  0  0  0  0  0  0  0
   -0.1136    5.7037   -0.4415 H   0  0  0  0  0  0  0  0  0  0  0  0
    4.5006    1.8194    0.2017 H   0  0  0  0  0  0  0  0  0  0  0  0
    2.1127    1.0133    1.6534 H   0  0  0  0  0  0  0  0  0  0  0  0
    0.4501   -0.2266    2.3882 H   0  0  0  0  0  0  0  0  0  0  0  0
    1.0191   -2.9002    3.6115 H   0  0  0  0  0  0  0  0  0  0  0  0
   -0.2392   -0.4640    4.9660 H   0  0  0  0  0  0  0  0  0  0  0  0
    2.5128   -1.6739    5.3148 H   0  0  0  0  0  0  0  0  0  0  0  0
    2.1237   -2.3020    7.3733 H   0  0  0  0  0  0  0  0  0  0  0  0
   -0.0390   -2.7252    7.9346 H   0  0  0  0  0  0  0  0  0  0  0  0
   -0.1867    1.0484    6.9242 H   0  0  0  0  0  0  0  0  0  0  0  0
   -3.1882    0.2268    9.7125 H   0  0  0  0  0  0  0  0  0  0  0  0
   -2.7884    2.8605    9.1675 H   0  0  0  0  0  0  0  0  0  0  0  0
    1.3665    0.3192    8.1340 H   0  0  0  0  0  0  0  0  0  0  0  0
    1.4873    0.9148    5.9156 H   0  0  0  0  0  0  0  0  0  0  0  0
   -1.5707   -2.7667    4.8758 H   0  0  0  0  0  0  0  0  0  0  0  0
    4.8326   -0.0499    1.7784 H   0  0  0  0  0  0  0  0  0  0  0  0
    4.1202    0.7223    3.0042 H   0  0  0  0  0  0  0  0  0  0  0  0
  1  2  1  0  0  0  0
  1 36  1  0  0  0  0
  1 37  1  0  0  0  0
  1 38  1  0  0  0  0
  2  3  1  0  0  0  0
  2 12  1  0  0  0  0
  2 39  1  0  0  0  0
  3  4  1  0  0  0  0
  3 11  1  0  0  0  0
  3 40  1  0  0  0  0
  4  5  2  0  0  0  0
  4  9  1  0  0  0  0
  5  6  1  0  0  0  0
  6  7  2  0  0  0  0
  6 41  1  0  0  0  0
  7  8  1  0  0  0  0
  7 10  1  0  0  0  0
  8  9  2  0  0  0  0
  8 42  1  0  0  0  0
  9 43  1  0  0  0  0
 10 44  1  0  0  0  0
 11 45  1  0  0  0  0
 12 13  1  0  0  0  0
 12 35  1  0  0  0  0
 12 46  1  0  0  0  0
 13 14  2  0  0  0  0
 13 15  1  0  0  0  0
 15 16  1  0  0  0  0
 15 47  1  0  0  0  0
 16 17  1  0  0  0  0
 16 32  1  0  0  0  0
 16 48  1  0  0  0  0
 17 18  1  0  0  0  0
 17 21  1  0  0  0  0
 17 49  1  0  0  0  0
 18 19  1  0  0  0  0
 18 31  1  0  0  0  0
 18 50  1  0  0  0  0
 19 20  1  0  0  0  0
 19 30  1  0  0  0  0
 19 51  1  0  0  0  0
 20 21  1  0  0  0  0
 20 22  1  0  0  0  0
 20 52  1  0  0  0  0
 22 23  1  0  0  0  0
 22 26  1  0  0  0  0
 23 24  2  0  0  0  0
 23 53  1  0  0  0  0
 24 25  1  0  0  0  0
 24 28  1  0  0  0  0
 25 26  1  0  0  0  0
 25 54  1  0  0  0  0
 26 27  2  0  0  0  0
 28 29  2  0  0  0  0
 28 55  1  0  0  0  0
 30 56  1  0  0  0  0
 31 57  1  0  0  0  0
 32 33  2  0  0  0  0
 32 34  1  0  0  0  0
 34 58  1  0  0  0  0
 35 59  1  0  0  0  0
 35 60  1  0  0  0  0
M  END
$$$$
