REMARK  Name = 
REMARK  8 active torsions:
REMARK  status: ('A' for Active; 'I' for Inactive)
REMARK    1  A    between atoms: C_2  and  C_3
REMARK    2  A    between atoms: C_2  and  CA_12
REMARK    3  A    between atoms: C_3  and  C_4
REMARK    4  A    between atoms: CA_12  and  C_13
REMARK    5  A    between atoms: N_15  and  CA_16
REMARK    6  A    between atoms: CA_16  and  C_17
REMARK    7  A    between atoms: CA_16  and  C_32
REMARK    8  A    between atoms: C_20  and  N_22
REMARK                            x       y       z     vdW  Elec       q    Type
REMARK                         _______ _______ _______ _____ _____    ______ ____
ROOT
ATOM      1  CA  UNL     1       0.000   0.000   0.000  0.00  0.00    +0.227 C 
ENDROOT
BRANCH   1   2
ATOM      2  C   UNL     1       0.000   0.000   0.000  0.00  0.00    +0.181 C 
ATOM      3  C   UNL     1       0.000   0.000   0.000  0.00  0.00    +0.216 C 
ATOM      4  C   UNL     1       0.000   0.000   0.000  0.00  0.00    +0.234 C 
ATOM      5  C   UNL     1       0.000   0.000   0.000  0.00  0.00    +0.242 C 
ATOM      6  O   UNL     1       0.000   0.000   0.000  0.00  0.00    -0.331 OA
ATOM      7  O   UNL     1       0.000   0.000   0.000  0.00  0.00    -0.216 OA
ATOM      8  O   UNL     1       0.000   0.000   0.000  0.00  0.00    -0.218 OA
BRANCH   5   9
ATOM      9  N   UNL     1       0.000   0.000   0.000  0.00  0.00    -0.253 N 
ATOM     10  C   UNL     1       0.000   0.000   0.000  0.00  0.00    +0.087 A 
ATOM     11  C   UNL     1       0.000   0.000   0.000  0.00  0.00    +0.081 A 
ATOM     12  C   UNL     1       0.000   0.000   0.000  0.00  0.00    +0.285 A 
ATOM     13  O   UNL     1       0.000   0.000   0.000  0.00  0.00    -0.265 OA
ATOM     14  N   UNL     1       0.000   0.000   0.000  0.00  0.00    -0.153 NA
ATOM     15  C   UNL     1       0.000   0.000   0.000  0.00  0.00    +0.355 A 
ATOM     16  O   UNL     1       0.000   0.000   0.000  0.00  0.00    -0.244 OA
ENDBRANCH   5   9
ENDBRANCH   1   2
BRANCH   1  19
ATOM     17  C   UNL     1       0.000   0.000   0.000  0.00  0.00    +0.259 C 
ATOM     18  O   UNL     1       0.000   0.000   0.000  0.00  0.00    -0.272 OA
ATOM     19  N   UNL     1       0.000   0.000   0.000  0.00  0.00    -0.192 NA
BRANCH  17  20
ATOM     20  CA  UNL     1       0.000   0.000   0.000  0.00  0.00    +0.172 C 
ATOM     21  N   UNL     1       0.000   0.000   0.000  0.00  0.00    -0.123 NA
BRANCH  20  23
ATOM     22  C   UNL     1       0.000   0.000   0.000  0.00  0.00    +0.005 C 
ATOM     23  C   UNL     1       0.000   0.000   0.000  0.00  0.00    +0.063 C 
BRANCH  23  24
ATOM     24  C   UNL     1       0.000   0.000   0.000  0.00  0.00    +0.193 C 
ATOM     25  O   UNL     1       0.000   0.000   0.000  0.00  0.00    -0.217 OA
BRANCH  24  26
ATOM     26  C   UNL     1       0.000   0.000   0.000  0.00  0.00    +0.089 A 
ATOM     27  N   UNL     1       0.000   0.000   0.000  0.00  0.00    -0.242 NA
ATOM     28  C   UNL     1       0.000   0.000   0.000  0.00  0.00    +0.140 A 
ATOM     29  C   UNL     1       0.000   0.000   0.000  0.00  0.00    +0.215 A 
ATOM     30  C   UNL     1       0.000   0.000   0.000  0.00  0.00    +0.045 A 
ATOM     31  C   UNL     1       0.000   0.000   0.000  0.00  0.00    +0.021 A 
ATOM     32  O   UNL     1       0.000   0.000   0.000  0.00  0.00    -0.285 OA
ENDBRANCH  24  26
ENDBRANCH  23  24
ENDBRANCH  20  23
ENDBRANCH  17  20
ENDBRANCH   1  19
BRANCH   1  33
ATOM     33  C   UNL     1       0.000   0.000   0.000  0.00  0.00    +0.387 C 
ATOM     34  O   UNL     1       0.000   0.000   0.000  0.00  0.00    -0.244 OA
ATOM     35  OXT UNL     1       0.000   0.000   0.000  0.00  0.00    -0.244 OA
ENDBRANCH   1  33
TORSDOF 8
