REMARK  Name = 
REMARK  36 active torsions:
REMARK  status: ('A' for Active; 'I' for Inactive)
REMARK    1  A    between atoms: C_1  and  C_2
REMARK    2  A    between atoms: C_2  and  C_3
REMARK    3  A    between atoms: C_3  and  C_4
REMARK    4  A    between atoms: C_3  and  C_5
REMARK    5  A    between atoms: C_5  and  C_6
REMARK    6  A    between atoms: C_6  and  C_7
REMARK    7  A    between atoms: C_8  and  C_9
REMARK    8  A    between atoms: C_10  and  C_11
REMARK    9  A    between atoms: C_10  and  C_12
REMARK   10  A    between atoms: C_12  and  C_13
REMARK   11  A    between atoms: C_12  and  O_64
REMARK   12  A    between atoms: C_13  and  C_14
REMARK   13  A    between atoms: C_15  and  C_16
REMARK   14  A    between atoms: C_17  and  C_18
REMARK   15  A    between atoms: C_18  and  O_20
REMARK   16  A    between atoms: O_20  and  C_21
REMARK   17  A    between atoms: C_22  and  O_40
REMARK   18  A    between atoms: C_23  and  C_38
REMARK   19  A    between atoms: C_26  and  O_27
REMARK   20  A    between atoms: C_33  and  O_37
REMARK   21  A    between atoms: C_35  and  O_36
REMARK   22  A    between atoms: C_38  and  O_39
REMARK   23  A    between atoms: O_40  and  C_41
REMARK   24  A    between atoms: C_42  and  O_63
REMARK   25  A    between atoms: C_43  and  O_62
REMARK   26  A    between atoms: C_44  and  O_61
REMARK   27  A    between atoms: C_45  and  C_47
REMARK   28  A    between atoms: C_47  and  O_48
REMARK   29  A    between atoms: O_48  and  C_49
REMARK   30  A    between atoms: C_49  and  C_51
REMARK   31  A    between atoms: C_52  and  C_53
REMARK   32  A    between atoms: C_54  and  C_55
REMARK   33  A    between atoms: C_56  and  C_57
REMARK   34  A    between atoms: C_57  and  C_58
REMARK   35  A    between atoms: C_57  and  O_60
REMARK   36  A    between atoms: C_58  and  C_59
REMARK                            x       y       z     vdW  Elec       q    Type
REMARK                         _______ _______ _______ _____ _____    ______ ____
ROOT
ATOM     21  C   UNL     1      10.769  -0.407  -7.503  0.00  0.00    +0.000 C 
ATOM     22  C   UNL     1       9.932  -1.464  -6.707  0.00  0.00    +0.000 C 
ATOM     23  C   UNL     1       9.098  -2.227  -7.779  0.00  0.00    +0.000 C 
ATOM     24  O   UNL     1       8.169  -1.288  -8.423  0.00  0.00    +0.000 OA
ATOM     25  C   UNL     1       8.801  -0.140  -9.017  0.00  0.00    +0.000 C 
ATOM     26  C   UNL     1       9.751   0.605  -8.041  0.00  0.00    +0.000 C 
ATOM     28  C   UNL     1       7.821   0.826  -9.629  0.00  0.00    +0.000 A 
ATOM     29  C   UNL     1       8.105   0.956 -10.983  0.00  0.00    +0.000 A 
ATOM     30  C   UNL     1       9.217   0.055 -11.352  0.00  0.00    +0.000 C 
ATOM     31  O   UNL     1       9.610  -0.597 -10.136  0.00  0.00    +0.000 OA
ATOM     32  C   UNL     1       7.466   1.883 -11.795  0.00  0.00    +0.000 A 
ATOM     33  C   UNL     1       6.513   2.708 -11.208  0.00  0.00    +0.000 A 
ATOM     34  C   UNL     1       6.213   2.611  -9.850  0.00  0.00    +0.000 A 
ATOM     35  C   UNL     1       6.873   1.664  -9.051  0.00  0.00    +0.000 A 
ENDROOT
BRANCH  33  37
ATOM     37  O   UNL     1       5.864   3.662 -11.936  0.00  0.00    +0.000 OA
ATOM     67  H   UNL     1       6.162   3.604 -12.858  0.00  0.00    +0.000 HD
ENDBRANCH  33  37
BRANCH  26  27
ATOM     27  O   UNL     1      10.459   1.703  -8.652  0.00  0.00    +0.000 OA
ATOM     65  H   UNL     1      11.067   1.314  -9.305  0.00  0.00    +0.000 HD
ENDBRANCH  26  27
BRANCH  35  36
ATOM     36  O   UNL     1       6.629   1.605  -7.720  0.00  0.00    +0.000 OA
ATOM     66  H   UNL     1       5.941   2.247  -7.517  0.00  0.00    +0.000 HD
ENDBRANCH  35  36
BRANCH  21  20
ATOM     20  O   UNL     1      11.769   0.363  -6.776  0.00  0.00    +0.000 OA
BRANCH  20  18
ATOM     18  C   UNL     1      13.064   0.235  -7.197  0.00  0.00    +0.000 C 
ATOM     19  O   UNL     1      13.453  -0.436  -8.138  0.00  0.00    +0.000 OA
BRANCH  18  17
ATOM     16  C   UNL     1      15.267   0.702  -6.234  0.00  0.00    +0.000 C 
ATOM     17  C   UNL     1      13.951   0.968  -6.268  0.00  0.00    +0.000 C 
BRANCH  16  15
ATOM     14  C   UNL     1      16.315   2.678  -5.215  0.00  0.00    +0.000 C 
ATOM     15  C   UNL     1      16.212   1.348  -5.351  0.00  0.00    +0.000 C 
BRANCH  14  13
ATOM     13  C   UNL     1      17.390   3.335  -4.389  0.00  0.00    +0.000 C 
BRANCH  13  12
ATOM     12  C   UNL     1      17.333   4.887  -4.385  0.00  0.00    +0.000 C 
BRANCH  12  10
ATOM      9  C   UNL     1      19.402   4.892  -2.942  0.00  0.00    +0.000 C 
ATOM     10  C   UNL     1      18.442   5.585  -3.593  0.00  0.00    +0.000 C 
ATOM     11  C   UNL     1      18.376   7.096  -3.639  0.00  0.00    +0.000 C 
BRANCH   9   8
ATOM      7  C   UNL     1      21.399   4.637  -1.565  0.00  0.00    +0.000 C 
ATOM      8  C   UNL     1      20.486   5.423  -2.153  0.00  0.00    +0.000 C 
BRANCH   7   6
ATOM      6  C   UNL     1      22.484   5.208  -0.712  0.00  0.00    +0.000 C 
BRANCH   6   5
ATOM      5  C   UNL     1      23.873   4.885  -1.257  0.00  0.00    +0.000 C 
BRANCH   5   3
ATOM      3  C   UNL     1      24.993   5.517  -0.403  0.00  0.00    +0.000 C 
ATOM      4  C   UNL     1      24.835   7.039  -0.298  0.00  0.00    +0.000 C 
BRANCH   3   2
ATOM      1  C   UNL     1      27.538   5.618  -0.159  0.00  0.00    +0.000 C 
ATOM      2  C   UNL     1      26.362   5.129  -0.992  0.00  0.00    +0.000 C 
ENDBRANCH   3   2
ENDBRANCH   5   3
ENDBRANCH   6   5
ENDBRANCH   7   6
ENDBRANCH   9   8
ENDBRANCH  12  10
BRANCH  12  64
ATOM     64  O   UNL     1      16.078   5.314  -3.850  0.00  0.00    +0.000 OA
ATOM     73  H   UNL     1      16.020   4.966  -2.945  0.00  0.00    +0.000 HD
ENDBRANCH  12  64
ENDBRANCH  13  12
ENDBRANCH  14  13
ENDBRANCH  16  15
ENDBRANCH  18  17
ENDBRANCH  20  18
ENDBRANCH  21  20
BRANCH  22  40
ATOM     40  O   UNL     1      10.649  -2.261  -5.733  0.00  0.00    +0.000 OA
BRANCH  40  41
ATOM     41  C   UNL     1      11.232  -1.457  -4.680  0.00  0.00    +0.000 C 
ATOM     42  C   UNL     1      10.264  -0.599  -3.806  0.00  0.00    +0.000 C 
ATOM     43  C   UNL     1      11.136   0.422  -3.059  0.00  0.00    +0.000 C 
ATOM     44  C   UNL     1      12.253  -0.259  -2.271  0.00  0.00    +0.000 C 
ATOM     45  C   UNL     1      13.068  -1.187  -3.194  0.00  0.00    +0.000 C 
ATOM     46  O   UNL     1      12.159  -2.160  -3.803  0.00  0.00    +0.000 OA
BRANCH  42  63
ATOM     63  O   UNL     1       9.257   0.139  -4.504  0.00  0.00    +0.000 OA
ATOM     72  H   UNL     1       9.620   0.999  -4.782  0.00  0.00    +0.000 HD
ENDBRANCH  42  63
BRANCH  43  62
ATOM     62  O   UNL     1      10.328   1.232  -2.203  0.00  0.00    +0.000 OA
ATOM     71  H   UNL     1      10.029   0.653  -1.476  0.00  0.00    +0.000 HD
ENDBRANCH  43  62
BRANCH  44  61
ATOM     61  O   UNL     1      11.654  -1.001  -1.198  0.00  0.00    +0.000 OA
ATOM     70  H   UNL     1      11.286  -1.825  -1.571  0.00  0.00    +0.000 HD
ENDBRANCH  44  61
BRANCH  45  47
ATOM     47  C   UNL     1      14.229  -1.831  -2.422  0.00  0.00    +0.000 C 
BRANCH  47  48
ATOM     48  O   UNL     1      15.047  -2.632  -3.302  0.00  0.00    +0.000 OA
BRANCH  48  49
ATOM     49  C   UNL     1      16.322  -2.207  -3.503  0.00  0.00    +0.000 C 
ATOM     50  O   UNL     1      16.819  -1.184  -3.063  0.00  0.00    +0.000 OA
BRANCH  49  51
ATOM     51  C   UNL     1      17.038  -3.186  -4.357  0.00  0.00    +0.000 C 
ATOM     52  C   UNL     1      18.338  -2.982  -4.635  0.00  0.00    +0.000 C 
BRANCH  52  53
ATOM     53  C   UNL     1      19.155  -3.854  -5.458  0.00  0.00    +0.000 C 
ATOM     54  C   UNL     1      20.459  -3.624  -5.709  0.00  0.00    +0.000 C 
BRANCH  54  55
ATOM     55  C   UNL     1      21.255  -4.506  -6.543  0.00  0.00    +0.000 C 
ATOM     56  C   UNL     1      22.562  -4.330  -6.829  0.00  0.00    +0.000 C 
BRANCH  56  57
ATOM     57  C   UNL     1      23.392  -5.211  -7.743  0.00  0.00    +0.000 C 
BRANCH  57  60
ATOM     60  O   UNL     1      22.897  -6.548  -7.735  0.00  0.00    +0.000 OA
ATOM     69  H   UNL     1      22.996  -6.873  -6.823  0.00  0.00    +0.000 HD
ENDBRANCH  57  60
BRANCH  57  58
ATOM     58  C   UNL     1      24.883  -5.259  -7.370  0.00  0.00    +0.000 C 
ATOM     59  C   UNL     1      25.683  -6.143  -8.328  0.00  0.00    +0.000 C 
ENDBRANCH  57  58
ENDBRANCH  56  57
ENDBRANCH  54  55
ENDBRANCH  52  53
ENDBRANCH  49  51
ENDBRANCH  48  49
ENDBRANCH  47  48
ENDBRANCH  45  47
ENDBRANCH  40  41
ENDBRANCH  22  40
BRANCH  23  38
ATOM     38  C   UNL     1       8.257  -3.365  -7.179  0.00  0.00    +0.000 C 
BRANCH  38  39
ATOM     39  O   UNL     1       7.531  -4.040  -8.213  0.00  0.00    +0.000 OA
ATOM     68  H   UNL     1       7.128  -3.338  -8.759  0.00  0.00    +0.000 HD
ENDBRANCH  38  39
ENDBRANCH  23  38
TORSDOF 32
