
 OpenBabel10112517243D

128131  0  0  1  0  0  0  0  0999 V2000
   27.5379    5.6183   -0.1586 C   0  0  0  0  0  0  0  0  0  0  0  0
   26.3622    5.1292   -0.9922 C   0  0  0  0  0  0  0  0  0  0  0  0
   24.9929    5.5167   -0.4031 C   0  0  3  0  0  0  0  0  0  0  0  0
   24.8346    7.0390   -0.2980 C   0  0  0  0  0  0  0  0  0  0  0  0
   23.8735    4.8854   -1.2573 C   0  0  0  0  0  0  0  0  0  0  0  0
   22.4838    5.2084   -0.7120 C   0  0  0  0  0  0  0  0  0  0  0  0
   21.3995    4.6367   -1.5645 C   0  0  0  0  0  0  0  0  0  0  0  0
   20.4861    5.4228   -2.1534 C   0  0  0  0  0  0  0  0  0  0  0  0
   19.4021    4.8924   -2.9424 C   0  0  0  0  0  0  0  0  0  0  0  0
   18.4418    5.5847   -3.5926 C   0  0  0  0  0  0  0  0  0  0  0  0
   18.3761    7.0965   -3.6389 C   0  0  0  0  0  0  0  0  0  0  0  0
   17.3334    4.8869   -4.3852 C   0  0  3  0  0  0  0  0  0  0  0  0
   17.3897    3.3352   -4.3889 C   0  0  0  0  0  0  0  0  0  0  0  0
   16.3153    2.6782   -5.2155 C   0  0  0  0  0  0  0  0  0  0  0  0
   16.2120    1.3482   -5.3505 C   0  0  0  0  0  0  0  0  0  0  0  0
   15.2670    0.7023   -6.2345 C   0  0  0  0  0  0  0  0  0  0  0  0
   13.9507    0.9681   -6.2683 C   0  0  0  0  0  0  0  0  0  0  0  0
   13.0644    0.2352   -7.1975 C   0  0  0  0  0  0  0  0  0  0  0  0
   13.4529   -0.4357   -8.1376 O   0  0  0  0  0  0  0  0  0  0  0  0
   11.7690    0.3629   -6.7756 O   0  0  0  0  0  0  0  0  0  0  0  0
   10.7688   -0.4071   -7.5028 C   0  0  1  0  0  0  0  0  0  0  0  0
    9.9319   -1.4642   -6.7068 C   0  0  1  0  0  0  0  0  0  0  0  0
    9.0978   -2.2265   -7.7785 C   0  0  2  0  0  0  0  0  0  0  0  0
    8.1694   -1.2884   -8.4233 O   0  0  0  0  0  0  0  0  0  0  0  0
    8.8013   -0.1401   -9.0166 C   0  0  2  0  0  0  0  0  0  0  0  0
    9.7507    0.6053   -8.0415 C   0  0  2  0  0  0  0  0  0  0  0  0
   10.4586    1.7032   -8.6521 O   0  0  0  0  0  0  0  0  0  0  0  0
    7.8205    0.8262   -9.6294 C   0  0  0  0  0  0  0  0  0  0  0  0
    8.1054    0.9556  -10.9827 C   0  0  0  0  0  0  0  0  0  0  0  0
    9.2174    0.0552  -11.3518 C   0  0  0  0  0  0  0  0  0  0  0  0
    9.6097   -0.5973  -10.1357 O   0  0  0  0  0  0  0  0  0  0  0  0
    7.4660    1.8831  -11.7948 C   0  0  0  0  0  0  0  0  0  0  0  0
    6.5135    2.7076  -11.2080 C   0  0  0  0  0  0  0  0  0  0  0  0
    6.2128    2.6108   -9.8498 C   0  0  0  0  0  0  0  0  0  0  0  0
    6.8733    1.6639   -9.0506 C   0  0  0  0  0  0  0  0  0  0  0  0
    6.6292    1.6049   -7.7197 O   0  0  0  0  0  0  0  0  0  0  0  0
    5.8642    3.6621  -11.9357 O   0  0  0  0  0  0  0  0  0  0  0  0
    8.2568   -3.3651   -7.1788 C   0  0  0  0  0  0  0  0  0  0  0  0
    7.5314   -4.0402   -8.2131 O   0  0  0  0  0  0  0  0  0  0  0  0
   10.6487   -2.2610   -5.7331 O   0  0  0  0  0  0  0  0  0  0  0  0
   11.2324   -1.4573   -4.6799 C   0  0  1  0  0  0  0  0  0  0  0  0
   10.2642   -0.5990   -3.8060 C   0  0  1  0  0  0  0  0  0  0  0  0
   11.1362    0.4218   -3.0591 C   0  0  2  0  0  0  0  0  0  0  0  0
   12.2532   -0.2590   -2.2709 C   0  0  2  0  0  0  0  0  0  0  0  0
   13.0678   -1.1867   -3.1938 C   0  0  2  0  0  0  0  0  0  0  0  0
   12.1593   -2.1603   -3.8026 O   0  0  0  0  0  0  0  0  0  0  0  0
   14.2288   -1.8306   -2.4216 C   0  0  0  0  0  0  0  0  0  0  0  0
   15.0467   -2.6325   -3.3016 O   0  0  0  0  0  0  0  0  0  0  0  0
   16.3217   -2.2074   -3.5028 C   0  0  0  0  0  0  0  0  0  0  0  0
   16.8193   -1.1839   -3.0629 O   0  0  0  0  0  0  0  0  0  0  0  0
   17.0384   -3.1858   -4.3570 C   0  0  0  0  0  0  0  0  0  0  0  0
   18.3384   -2.9821   -4.6353 C   0  0  0  0  0  0  0  0  0  0  0  0
   19.1554   -3.8536   -5.4581 C   0  0  0  0  0  0  0  0  0  0  0  0
   20.4589   -3.6244   -5.7093 C   0  0  0  0  0  0  0  0  0  0  0  0
   21.2554   -4.5065   -6.5432 C   0  0  0  0  0  0  0  0  0  0  0  0
   22.5624   -4.3300   -6.8286 C   0  0  0  0  0  0  0  0  0  0  0  0
   23.3922   -5.2106   -7.7427 C   0  0  3  0  0  0  0  0  0  0  0  0
   24.8826   -5.2593   -7.3700 C   0  0  0  0  0  0  0  0  0  0  0  0
   25.6825   -6.1427   -8.3279 C   0  0  0  0  0  0  0  0  0  0  0  0
   22.8969   -6.5485   -7.7348 O   0  0  0  0  0  0  0  0  0  0  0  0
   11.6536   -1.0008   -1.1982 O   0  0  0  0  0  0  0  0  0  0  0  0
   10.3283    1.2318   -2.2029 O   0  0  0  0  0  0  0  0  0  0  0  0
    9.2570    0.1387   -4.5044 O   0  0  0  0  0  0  0  0  0  0  0  0
   16.0778    5.3143   -3.8499 O   0  0  0  0  0  0  0  0  0  0  0  0
   28.4779    5.2526   -0.5818 H   0  0  0  0  0  0  0  0  0  0  0  0
   27.4622    5.2580    0.8721 H   0  0  0  0  0  0  0  0  0  0  0  0
   27.5942    6.7104   -0.1411 H   0  0  0  0  0  0  0  0  0  0  0  0
   26.4263    4.0365   -1.0677 H   0  0  0  0  0  0  0  0  0  0  0  0
   26.4566    5.5221   -2.0120 H   0  0  0  0  0  0  0  0  0  0  0  0
   24.9215    5.0971    0.6090 H   0  0  0  0  0  0  0  0  0  0  0  0
   24.8573    7.5055   -1.2884 H   0  0  0  0  0  0  0  0  0  0  0  0
   25.6202    7.4866    0.3149 H   0  0  0  0  0  0  0  0  0  0  0  0
   23.8957    7.3169    0.1889 H   0  0  0  0  0  0  0  0  0  0  0  0
   24.0066    3.7948   -1.2814 H   0  0  0  0  0  0  0  0  0  0  0  0
   23.9576    5.2304   -2.2967 H   0  0  0  0  0  0  0  0  0  0  0  0
   22.3431    6.2918   -0.6626 H   0  0  0  0  0  0  0  0  0  0  0  0
   22.3783    4.8239    0.3081 H   0  0  0  0  0  0  0  0  0  0  0  0
   21.3609    3.5550   -1.6693 H   0  0  0  0  0  0  0  0  0  0  0  0
   20.5528    6.4967   -2.0144 H   0  0  0  0  0  0  0  0  0  0  0  0
   19.4008    3.8059   -2.9790 H   0  0  0  0  0  0  0  0  0  0  0  0
   19.1872    7.5901   -3.0969 H   0  0  0  0  0  0  0  0  0  0  0  0
   17.4419    7.4639   -3.2039 H   0  0  0  0  0  0  0  0  0  0  0  0
   18.4424    7.4459   -4.6748 H   0  0  0  0  0  0  0  0  0  0  0  0
   17.3791    5.2427   -5.4219 H   0  0  0  0  0  0  0  0  0  0  0  0
   17.2991    2.9666   -3.3583 H   0  0  0  0  0  0  0  0  0  0  0  0
   18.3615    3.0180   -4.7902 H   0  0  0  0  0  0  0  0  0  0  0  0
   15.6437    3.3387   -5.7577 H   0  0  0  0  0  0  0  0  0  0  0  0
   16.9145    0.6997   -4.8306 H   0  0  0  0  0  0  0  0  0  0  0  0
   15.6960   -0.0664   -6.8773 H   0  0  0  0  0  0  0  0  0  0  0  0
   13.4996    1.6999   -5.6110 H   0  0  0  0  0  0  0  0  0  0  0  0
   11.2676   -0.9212   -8.3311 H   0  0  0  0  0  0  0  0  0  0  0  0
    9.1320   -0.9756   -6.1673 H   0  0  0  0  0  0  0  0  0  0  0  0
    9.7337   -2.6613   -8.5600 H   0  0  0  0  0  0  0  0  0  0  0  0
    9.1928    1.0333   -7.1982 H   0  0  0  0  0  0  0  0  0  0  0  0
   11.0673    1.3142   -9.3046 H   0  0  0  0  0  0  0  0  0  0  0  0
   10.0763    0.6169  -11.7288 H   0  0  0  0  0  0  0  0  0  0  0  0
    8.9047   -0.7025  -12.0733 H   0  0  0  0  0  0  0  0  0  0  0  0
    7.7374    1.9767  -12.8402 H   0  0  0  0  0  0  0  0  0  0  0  0
    5.4896    3.2988   -9.4236 H   0  0  0  0  0  0  0  0  0  0  0  0
    5.9414    2.2474   -7.5173 H   0  0  0  0  0  0  0  0  0  0  0  0
    6.1624    3.6041  -12.8583 H   0  0  0  0  0  0  0  0  0  0  0  0
    7.5202   -2.9863   -6.4631 H   0  0  0  0  0  0  0  0  0  0  0  0
    8.8850   -4.1094   -6.6811 H   0  0  0  0  0  0  0  0  0  0  0  0
    7.1278   -3.3378   -8.7589 H   0  0  0  0  0  0  0  0  0  0  0  0
   11.8970   -0.7989   -5.1919 H   0  0  0  0  0  0  0  0  0  0  0  0
    9.7287   -1.2514   -3.1071 H   0  0  0  0  0  0  0  0  0  0  0  0
   11.5751    1.1112   -3.7923 H   0  0  0  0  0  0  0  0  0  0  0  0
   12.8901    0.5077   -1.8167 H   0  0  0  0  0  0  0  0  0  0  0  0
   13.5274   -0.6077   -4.0022 H   0  0  0  0  0  0  0  0  0  0  0  0
   13.8652   -2.4871   -1.6276 H   0  0  0  0  0  0  0  0  0  0  0  0
   14.8182   -1.0318   -1.9488 H   0  0  0  0  0  0  0  0  0  0  0  0
   16.4785   -4.0360   -4.7265 H   0  0  0  0  0  0  0  0  0  0  0  0
   18.8374   -2.1061   -4.2231 H   0  0  0  0  0  0  0  0  0  0  0  0
   18.6680   -4.7300   -5.8848 H   0  0  0  0  0  0  0  0  0  0  0  0
   20.9524   -2.7478   -5.2906 H   0  0  0  0  0  0  0  0  0  0  0  0
   20.7198   -5.3445   -6.9853 H   0  0  0  0  0  0  0  0  0  0  0  0
   23.0753   -3.4554   -6.4290 H   0  0  0  0  0  0  0  0  0  0  0  0
   23.2954   -4.8242   -8.7643 H   0  0  0  0  0  0  0  0  0  0  0  0
   24.9990   -5.6671   -6.3587 H   0  0  0  0  0  0  0  0  0  0  0  0
   25.3141   -4.2516   -7.3706 H   0  0  0  0  0  0  0  0  0  0  0  0
   25.2408   -7.1395   -8.4287 H   0  0  0  0  0  0  0  0  0  0  0  0
   26.7059   -6.2716   -7.9616 H   0  0  0  0  0  0  0  0  0  0  0  0
   25.7327   -5.6923   -9.3245 H   0  0  0  0  0  0  0  0  0  0  0  0
   22.9958   -6.8733   -6.8230 H   0  0  0  0  0  0  0  0  0  0  0  0
   11.2858   -1.8255   -1.5712 H   0  0  0  0  0  0  0  0  0  0  0  0
   10.0291    0.6534   -1.4755 H   0  0  0  0  0  0  0  0  0  0  0  0
    9.6196    0.9994   -4.7821 H   0  0  0  0  0  0  0  0  0  0  0  0
   16.0203    4.9662   -2.9445 H   0  0  0  0  0  0  0  0  0  0  0  0
  1  2  1  0  0  0  0
  1 65  1  0  0  0  0
  1 66  1  0  0  0  0
  1 67  1  0  0  0  0
  2  3  1  0  0  0  0
  2 68  1  0  0  0  0
  2 69  1  0  0  0  0
  3  4  1  0  0  0  0
  3  5  1  0  0  0  0
  3 70  1  0  0  0  0
  4 71  1  0  0  0  0
  4 72  1  0  0  0  0
  4 73  1  0  0  0  0
  5  6  1  0  0  0  0
  5 74  1  0  0  0  0
  5 75  1  0  0  0  0
  6  7  1  0  0  0  0
  6 76  1  0  0  0  0
  6 77  1  0  0  0  0
  7  8  2  0  0  0  0
  7 78  1  0  0  0  0
  8  9  1  0  0  0  0
  8 79  1  0  0  0  0
  9 10  2  0  0  0  0
  9 80  1  0  0  0  0
 10 11  1  0  0  0  0
 10 12  1  0  0  0  0
 11 81  1  0  0  0  0
 11 82  1  0  0  0  0
 11 83  1  0  0  0  0
 12 13  1  0  0  0  0
 12 64  1  0  0  0  0
 12 84  1  0  0  0  0
 13 14  1  0  0  0  0
 13 85  1  0  0  0  0
 13 86  1  0  0  0  0
 14 15  2  0  0  0  0
 14 87  1  0  0  0  0
 15 16  1  0  0  0  0
 15 88  1  0  0  0  0
 16 17  2  0  0  0  0
 16 89  1  0  0  0  0
 17 18  1  0  0  0  0
 17 90  1  0  0  0  0
 18 19  2  0  0  0  0
 18 20  1  0  0  0  0
 21 22  1  0  0  0  0
 21 26  1  0  0  0  0
 21 20  1  0  0  0  0
 21 91  1  6  0  0  0
 22 23  1  0  0  0  0
 22 40  1  0  0  0  0
 22 92  1  1  0  0  0
 23 24  1  0  0  0  0
 23 38  1  0  0  0  0
 23 93  1  6  0  0  0
 25 24  1  1  0  0  0
 25 26  1  0  0  0  0
 25 28  1  0  0  0  0
 25 31  1  0  0  0  0
 26 27  1  0  0  0  0
 26 94  1  1  0  0  0
 27 95  1  0  0  0  0
 28 29  2  0  0  0  0
 28 35  1  0  0  0  0
 29 30  1  0  0  0  0
 29 32  1  0  0  0  0
 30 31  1  0  0  0  0
 30 96  1  0  0  0  0
 30 97  1  0  0  0  0
 32 33  2  0  0  0  0
 32 98  1  0  0  0  0
 33 34  1  0  0  0  0
 33 37  1  0  0  0  0
 34 35  2  0  0  0  0
 34 99  1  0  0  0  0
 35 36  1  0  0  0  0
 36100  1  0  0  0  0
 37101  1  0  0  0  0
 38 39  1  0  0  0  0
 38102  1  0  0  0  0
 38103  1  0  0  0  0
 39104  1  0  0  0  0
 41 42  1  0  0  0  0
 41 46  1  0  0  0  0
 41 40  1  0  0  0  0
 41105  1  6  0  0  0
 42 43  1  0  0  0  0
 42 63  1  0  0  0  0
 42106  1  1  0  0  0
 43 44  1  0  0  0  0
 43 62  1  0  0  0  0
 43107  1  6  0  0  0
 44 45  1  0  0  0  0
 44 61  1  0  0  0  0
 44108  1  1  0  0  0
 45 46  1  0  0  0  0
 45 47  1  0  0  0  0
 45109  1  6  0  0  0
 47 48  1  0  0  0  0
 47110  1  0  0  0  0
 47111  1  0  0  0  0
 48 49  1  0  0  0  0
 49 50  2  0  0  0  0
 49 51  1  0  0  0  0
 51 52  2  0  0  0  0
 51112  1  0  0  0  0
 52 53  1  0  0  0  0
 52113  1  0  0  0  0
 53 54  2  0  0  0  0
 53114  1  0  0  0  0
 54 55  1  0  0  0  0
 54115  1  0  0  0  0
 55 56  2  0  0  0  0
 55116  1  0  0  0  0
 56 57  1  0  0  0  0
 56117  1  0  0  0  0
 57 58  1  0  0  0  0
 57 60  1  0  0  0  0
 57118  1  0  0  0  0
 58 59  1  0  0  0  0
 58119  1  0  0  0  0
 58120  1  0  0  0  0
 59121  1  0  0  0  0
 59122  1  0  0  0  0
 59123  1  0  0  0  0
 60124  1  0  0  0  0
 61125  1  0  0  0  0
 62126  1  0  0  0  0
 63127  1  0  0  0  0
 64128  1  0  0  0  0
M  END
$$$$
