REMARK  Name = 
REMARK  36 active torsions:
REMARK  status: ('A' for Active; 'I' for Inactive)
REMARK    1  A    between atoms: C_1  and  C_2
REMARK    2  A    between atoms: C_2  and  C_3
REMARK    3  A    between atoms: C_3  and  C_4
REMARK    4  A    between atoms: C_3  and  C_5
REMARK    5  A    between atoms: C_5  and  C_6
REMARK    6  A    between atoms: C_6  and  C_7
REMARK    7  A    between atoms: C_8  and  C_9
REMARK    8  A    between atoms: C_10  and  C_11
REMARK    9  A    between atoms: C_10  and  C_12
REMARK   10  A    between atoms: C_12  and  C_13
REMARK   11  A    between atoms: C_12  and  O_64
REMARK   12  A    between atoms: C_13  and  C_14
REMARK   13  A    between atoms: C_15  and  C_16
REMARK   14  A    between atoms: C_17  and  C_18
REMARK   15  A    between atoms: C_18  and  O_20
REMARK   16  A    between atoms: O_20  and  C_21
REMARK   17  A    between atoms: C_22  and  O_40
REMARK   18  A    between atoms: C_23  and  C_38
REMARK   19  A    between atoms: C_26  and  O_27
REMARK   20  A    between atoms: C_33  and  O_37
REMARK   21  A    between atoms: C_35  and  O_36
REMARK   22  A    between atoms: C_38  and  O_39
REMARK   23  A    between atoms: O_40  and  C_41
REMARK   24  A    between atoms: C_42  and  O_63
REMARK   25  A    between atoms: C_43  and  O_62
REMARK   26  A    between atoms: C_44  and  O_61
REMARK   27  A    between atoms: C_45  and  C_47
REMARK   28  A    between atoms: C_47  and  O_48
REMARK   29  A    between atoms: O_48  and  C_49
REMARK   30  A    between atoms: C_49  and  C_51
REMARK   31  A    between atoms: C_52  and  C_53
REMARK   32  A    between atoms: C_54  and  C_55
REMARK   33  A    between atoms: C_56  and  C_57
REMARK   34  A    between atoms: C_57  and  C_58
REMARK   35  A    between atoms: C_57  and  O_60
REMARK   36  A    between atoms: C_58  and  C_59
REMARK                            x       y       z     vdW  Elec       q    Type
REMARK                         _______ _______ _______ _____ _____    ______ ____
ROOT
ATOM      1  C   UNL     1      11.146   6.788   0.467  0.00  0.00    +0.242 C 
ATOM      2  C   UNL     1       9.623   6.940   0.757  0.00  0.00    +0.196 C 
ATOM      3  C   UNL     1       9.303   8.402   0.318  0.00  0.00    +0.180 C 
ATOM      4  O   UNL     1      10.009   9.362   1.146  0.00  0.00    -0.334 OA
ATOM      5  C   UNL     1      11.438   9.207   1.130  0.00  0.00    +0.231 C 
ATOM      6  C   UNL     1      11.877   7.741   1.442  0.00  0.00    +0.222 C 
ATOM      7  C   UNL     1      12.093  10.227   2.019  0.00  0.00    +0.061 A 
ATOM      8  C   UNL     1      12.911  11.054   1.258  0.00  0.00    -0.007 A 
ATOM      9  C   UNL     1      12.824  10.666  -0.163  0.00  0.00    +0.199 C 
ATOM     10  O   UNL     1      11.938   9.532  -0.204  0.00  0.00    -0.338 OA
ATOM     11  C   UNL     1      13.696  12.054   1.826  0.00  0.00    +0.052 A 
ATOM     12  C   UNL     1      13.634  12.219   3.204  0.00  0.00    +0.121 A 
ATOM     13  C   UNL     1      12.811  11.409   3.988  0.00  0.00    +0.091 A 
ATOM     14  C   UNL     1      12.042  10.406   3.390  0.00  0.00    +0.129 A 
ENDROOT
BRANCH  12  15
ATOM     15  O   UNL     1      14.384  13.164   3.840  0.00  0.00    -0.507 OA
ATOM     16  H   UNL     1      14.933  13.617   3.182  0.00  0.00    +0.292 HD
ENDBRANCH  12  15
BRANCH   6  17
ATOM     17  O   UNL     1      13.300   7.547   1.312  0.00  0.00    -0.382 OA
ATOM     18  H   UNL     1      13.533   7.834   0.420  0.00  0.00    +0.210 HD
ENDBRANCH   6  17
BRANCH  14  19
ATOM     19  O   UNL     1      11.260   9.592   4.146  0.00  0.00    -0.506 OA
ATOM     20  H   UNL     1      11.337   9.890   5.067  0.00  0.00    +0.292 HD
ENDBRANCH  14  19
BRANCH   1  21
ATOM     21  O   UNL     1      11.704   5.444   0.587  0.00  0.00    -0.453 OA
BRANCH  21  22
ATOM     22  C   UNL     1      12.323   4.975  -0.548  0.00  0.00    +0.332 C 
ATOM     23  O   UNL     1      12.350   5.541  -1.630  0.00  0.00    -0.246 OA
BRANCH  22  25
ATOM     24  C   UNL     1      13.697   3.086  -1.259  0.00  0.00    +0.007 C 
ATOM     25  C   UNL     1      12.918   3.638  -0.311  0.00  0.00    +0.091 C 
BRANCH  24  27
ATOM     26  C   UNL     1      15.448   1.457  -1.835  0.00  0.00    -0.024 C 
ATOM     27  C   UNL     1      14.331   1.783  -1.156  0.00  0.00    -0.004 C 
BRANCH  26  28
ATOM     28  C   UNL     1      16.089   0.077  -1.838  0.00  0.00    +0.063 C 
BRANCH  28  29
ATOM     29  C   UNL     1      17.644   0.068  -1.845  0.00  0.00    +0.144 C 
BRANCH  29  31
ATOM     30  C   UNL     1      19.021  -1.629  -3.068  0.00  0.00    +0.001 C 
ATOM     31  C   UNL     1      18.252  -1.334  -1.989  0.00  0.00    -0.044 C 
ATOM     32  C   UNL     1      17.958  -2.298  -0.866  0.00  0.00    +0.042 C 
BRANCH  30  34
ATOM     33  C   UNL     1      20.441  -3.121  -4.430  0.00  0.00    -0.027 C 
ATOM     34  C   UNL     1      19.654  -2.899  -3.363  0.00  0.00    -0.004 C 
BRANCH  33  35
ATOM     35  C   UNL     1      21.041  -4.470  -4.711  0.00  0.00    +0.027 C 
BRANCH  35  36
ATOM     36  C   UNL     1      22.573  -4.446  -4.727  0.00  0.00    +0.007 C 
BRANCH  36  37
ATOM     37  C   UNL     1      23.193  -5.840  -4.986  0.00  0.00    -0.014 C 
ATOM     38  C   UNL     1      22.737  -6.868  -3.942  0.00  0.00    +0.007 C 
BRANCH  37  40
ATOM     39  C   UNL     1      25.437  -7.021  -5.375  0.00  0.00    +0.004 C 
ATOM     40  C   UNL     1      24.730  -5.719  -5.022  0.00  0.00    -0.000 C 
ENDBRANCH  37  40
ENDBRANCH  36  37
ENDBRANCH  35  36
ENDBRANCH  33  35
ENDBRANCH  30  34
ENDBRANCH  29  31
BRANCH  29  41
ATOM     41  O   UNL     1      18.168   0.650  -0.653  0.00  0.00    -0.387 OA
ATOM     42  H   UNL     1      17.760   0.195   0.101  0.00  0.00    +0.210 HD
ENDBRANCH  29  41
ENDBRANCH  28  29
ENDBRANCH  26  28
ENDBRANCH  24  27
ENDBRANCH  22  25
ENDBRANCH  21  22
ENDBRANCH   1  21
BRANCH   2  43
ATOM     43  O   UNL     1       8.741   6.029   0.090  0.00  0.00    -0.339 OA
BRANCH  43  44
ATOM     44  C   UNL     1       8.934   4.635   0.319  0.00  0.00    +0.282 C 
ATOM     45  C   UNL     1       8.768   4.116   1.776  0.00  0.00    +0.201 C 
ATOM     46  C   UNL     1       9.060   2.593   1.781  0.00  0.00    +0.179 C 
ATOM     47  C   UNL     1       8.280   1.840   0.689  0.00  0.00    +0.178 C 
ATOM     48  C   UNL     1       8.477   2.532  -0.669  0.00  0.00    +0.190 C 
ATOM     49  O   UNL     1       8.040   3.901  -0.539  0.00  0.00    -0.339 OA
BRANCH  45  50
ATOM     50  O   UNL     1       9.635   4.778   2.708  0.00  0.00    -0.384 OA
ATOM     51  H   UNL     1      10.538   4.428   2.611  0.00  0.00    +0.210 HD
ENDBRANCH  45  50
BRANCH  46  52
ATOM     52  O   UNL     1       8.782   2.020   3.064  0.00  0.00    -0.386 OA
ATOM     53  H   UNL     1       7.826   1.811   3.085  0.00  0.00    +0.210 HD
ENDBRANCH  46  52
BRANCH  47  54
ATOM     54  O   UNL     1       6.895   1.803   1.071  0.00  0.00    -0.386 OA
ATOM     55  H   UNL     1       6.515   2.695   0.950  0.00  0.00    +0.210 HD
ENDBRANCH  47  54
BRANCH  48  56
ATOM     56  C   UNL     1       7.707   1.845  -1.807  0.00  0.00    +0.266 C 
BRANCH  56  57
ATOM     57  O   UNL     1       7.958   2.476  -3.086  0.00  0.00    -0.459 OA
BRANCH  57  58
ATOM     58  C   UNL     1       9.166   2.213  -3.643  0.00  0.00    +0.332 C 
ATOM     59  O   UNL     1      10.042   1.513  -3.157  0.00  0.00    -0.246 OA
BRANCH  58  60
ATOM     60  C   UNL     1       9.255   2.916  -4.941  0.00  0.00    +0.091 C 
ATOM     61  C   UNL     1      10.343   2.747  -5.707  0.00  0.00    +0.007 C 
BRANCH  61  62
ATOM     62  C   UNL     1      10.535   3.385  -7.000  0.00  0.00    +0.000 C 
ATOM     63  C   UNL     1      11.627   3.193  -7.761  0.00  0.00    -0.000 C 
BRANCH  63  64
ATOM     64  C   UNL     1      11.802   3.849  -9.043  0.00  0.00    -0.002 C 
ATOM     65  C   UNL     1      12.880   3.702  -9.838  0.00  0.00    +0.004 C 
BRANCH  65  66
ATOM     66  C   UNL     1      13.109   4.428 -11.153  0.00  0.00    +0.137 C 
BRANCH  66  67
ATOM     67  O   UNL     1      11.872   4.758 -11.788  0.00  0.00    -0.388 OA
ATOM     68  H   UNL     1      11.422   3.914 -11.969  0.00  0.00    +0.210 HD
ENDBRANCH  66  67
BRANCH  66  69
ATOM     69  C   UNL     1      13.951   3.620 -12.150  0.00  0.00    +0.032 C 
ATOM     70  C   UNL     1      14.190   4.391 -13.447  0.00  0.00    +0.007 C 
ENDBRANCH  66  69
ENDBRANCH  65  66
ENDBRANCH  63  64
ENDBRANCH  61  62
ENDBRANCH  58  60
ENDBRANCH  57  58
ENDBRANCH  56  57
ENDBRANCH  48  56
ENDBRANCH  43  44
ENDBRANCH   2  43
BRANCH   3  71
ATOM     71  C   UNL     1       7.804   8.734   0.349  0.00  0.00    +0.190 C 
BRANCH  71  72
ATOM     72  O   UNL     1       7.594  10.060  -0.152  0.00  0.00    -0.392 OA
ATOM     73  H   UNL     1       8.299  10.608   0.246  0.00  0.00    +0.210 HD
ENDBRANCH  71  72
ENDBRANCH   3  71
TORSDOF 32
