REMARK  Name = 
REMARK  11 active torsions:
REMARK  status: ('A' for Active; 'I' for Inactive)
REMARK    1  A    between atoms: C_1  and  O_2
REMARK    2  A    between atoms: O_2  and  C_3
REMARK    3  A    between atoms: C_5  and  C_21
REMARK    4  A    between atoms: C_7  and  C_10
REMARK    5  A    between atoms: C_8  and  O_9
REMARK    6  A    between atoms: C_11  and  C_12
REMARK    7  A    between atoms: C_14  and  O_19
REMARK    8  A    between atoms: C_15  and  O_18
REMARK    9  A    between atoms: O_19  and  C_20
REMARK   10  A    between atoms: C_22  and  C_23
REMARK   11  A    between atoms: C_23  and  O_25
REMARK                            x       y       z     vdW  Elec       q    Type
REMARK                         _______ _______ _______ _____ _____    ______ ____
ROOT
ATOM      1  C   UNL     1       3.136   1.068  -0.015  0.00  0.00    +0.162 A 
ATOM      2  C   UNL     1       2.491   2.307  -0.009  0.00  0.00    +0.057 A 
ATOM      3  C   UNL     1       3.222   3.505   0.002  0.00  0.00    -0.021 A 
ATOM      4  C   UNL     1       4.624   3.447  -0.043  0.00  0.00    +0.019 A 
ATOM      5  C   UNL     1       5.295   2.215  -0.065  0.00  0.00    +0.021 A 
ATOM      6  C   UNL     1       4.540   1.030  -0.037  0.00  0.00    +0.166 A 
ENDROOT
BRANCH   1   8
ATOM      7  C   UNL     1       1.071  -0.137   0.002  0.00  0.00    +0.277 C 
ATOM      8  O   UNL     1       2.492  -0.144  -0.016  0.00  0.00    -0.491 OA
ENDBRANCH   1   8
BRANCH   6   9
ATOM      9  O   UNL     1       5.147  -0.203  -0.046  0.00  0.00    -0.503 OA
ATOM     10  H   UNL     1       6.108  -0.083  -0.004  0.00  0.00    +0.292 HD
ENDBRANCH   6   9
BRANCH   5  11
ATOM     11  C   UNL     1       6.763   2.208  -0.169  0.00  0.00    +0.012 C 
ATOM     12  C   UNL     1       7.570   2.203   0.905  0.00  0.00    +0.009 C 
BRANCH  12  13
ATOM     13  C   UNL     1       9.043   2.144   0.841  0.00  0.00    -0.021 A 
ATOM     14  C   UNL     1       9.787   2.673  -0.225  0.00  0.00    +0.057 A 
ATOM     15  C   UNL     1      11.196   2.617  -0.272  0.00  0.00    +0.162 A 
ATOM     16  C   UNL     1      11.865   2.014   0.795  0.00  0.00    +0.158 A 
ATOM     17  C   UNL     1      11.138   1.499   1.874  0.00  0.00    +0.050 A 
ATOM     18  C   UNL     1       9.743   1.570   1.903  0.00  0.00    +0.012 A 
BRANCH  16  19
ATOM     19  O   UNL     1      13.213   1.847   0.927  0.00  0.00    -0.503 OA
ATOM     20  H   UNL     1      13.684   2.458   0.352  0.00  0.00    +0.292 HD
ENDBRANCH  16  19
BRANCH  15  21
ATOM     21  O   UNL     1      11.676   3.183  -1.418  0.00  0.00    -0.491 OA
ATOM     22  C   UNL     1      13.060   3.230  -1.701  0.00  0.00    +0.277 C 
ENDBRANCH  15  21
ENDBRANCH  12  13
ENDBRANCH   5  11
BRANCH   3  23
ATOM     23  C   UNL     1       2.556   4.819  -0.016  0.00  0.00    +0.015 C 
ATOM     24  C   UNL     1       1.365   5.071   0.555  0.00  0.00    +0.092 C 
BRANCH  24  25
ATOM     25  C   UNL     1       0.786   6.424   0.469  0.00  0.00    +0.330 C 
ATOM     26  O   UNL     1       1.313   7.367  -0.092  0.00  0.00    -0.246 OA
BRANCH  25  27
ATOM     27  O   UNL     1      -0.411   6.507   1.082  0.00  0.00    -0.478 OA
ATOM     28  H   UNL     1      -0.730   5.689   1.504  0.00  0.00    +0.295 HD
ENDBRANCH  25  27
ENDBRANCH  24  25
ENDBRANCH   3  23
TORSDOF 9
