REMARK  Name = 
REMARK  11 active torsions:
REMARK  status: ('A' for Active; 'I' for Inactive)
REMARK    1  A    between atoms: C_1  and  O_2
REMARK    2  A    between atoms: O_2  and  C_3
REMARK    3  A    between atoms: C_5  and  C_21
REMARK    4  A    between atoms: C_7  and  C_10
REMARK    5  A    between atoms: C_8  and  O_9
REMARK    6  A    between atoms: C_11  and  C_12
REMARK    7  A    between atoms: C_14  and  O_19
REMARK    8  A    between atoms: C_15  and  O_18
REMARK    9  A    between atoms: O_19  and  C_20
REMARK   10  A    between atoms: C_22  and  C_23
REMARK   11  A    between atoms: C_23  and  O_25
REMARK                            x       y       z     vdW  Elec       q    Type
REMARK                         _______ _______ _______ _____ _____    ______ ____
ROOT
ATOM      3  C   UNL     1       3.103   1.090  -0.055  0.00  0.00    +0.000 A 
ATOM      4  C   UNL     1       2.455   2.330  -0.051  0.00  0.00    +0.000 A 
ATOM      5  C   UNL     1       3.185   3.529  -0.043  0.00  0.00    +0.000 A 
ATOM      6  C   UNL     1       4.588   3.471  -0.085  0.00  0.00    +0.000 A 
ATOM      7  C   UNL     1       5.263   2.240  -0.102  0.00  0.00    +0.000 A 
ATOM      8  C   UNL     1       4.508   1.055  -0.073  0.00  0.00    +0.000 A 
ENDROOT
BRANCH   3   2
ATOM      1  C   UNL     1       1.040  -0.118  -0.029  0.00  0.00    +0.000 C 
ATOM      2  O   UNL     1       2.460  -0.121  -0.059  0.00  0.00    +0.000 OA
ENDBRANCH   3   2
BRANCH   8   9
ATOM      9  O   UNL     1       5.115  -0.179  -0.083  0.00  0.00    +0.000 OA
ATOM     26  H   UNL     1       6.077  -0.056  -0.038  0.00  0.00    +0.000 HD
ENDBRANCH   8   9
BRANCH   7  10
ATOM     10  C   UNL     1       6.731   2.234  -0.206  0.00  0.00    +0.000 C 
ATOM     11  C   UNL     1       7.545   2.230   0.863  0.00  0.00    +0.000 C 
BRANCH  11  12
ATOM     12  C   UNL     1       9.019   2.174   0.787  0.00  0.00    +0.000 A 
ATOM     13  C   UNL     1       9.752   2.710  -0.285  0.00  0.00    +0.000 A 
ATOM     14  C   UNL     1      11.161   2.656  -0.345  0.00  0.00    +0.000 A 
ATOM     15  C   UNL     1      11.841   2.051   0.713  0.00  0.00    +0.000 A 
ATOM     16  C   UNL     1      11.126   1.531   1.798  0.00  0.00    +0.000 A 
ATOM     17  C   UNL     1       9.731   1.599   1.841  0.00  0.00    +0.000 A 
BRANCH  15  18
ATOM     18  O   UNL     1      13.191   1.886   0.829  0.00  0.00    +0.000 OA
ATOM     27  H   UNL     1      13.653   2.521   0.271  0.00  0.00    +0.000 HD
ENDBRANCH  15  18
BRANCH  14  19
ATOM     19  O   UNL     1      11.629   3.225  -1.494  0.00  0.00    +0.000 OA
ATOM     20  C   UNL     1      13.011   3.275  -1.789  0.00  0.00    +0.000 C 
ENDBRANCH  14  19
ENDBRANCH  11  12
ENDBRANCH   7  10
BRANCH   5  21
ATOM     21  C   UNL     1       2.518   4.843  -0.065  0.00  0.00    +0.000 C 
ATOM     22  C   UNL     1       1.328   5.100   0.504  0.00  0.00    +0.000 C 
BRANCH  22  23
ATOM     23  C   UNL     1       0.756   6.458   0.419  0.00  0.00    +0.000 C 
ATOM     24  O   UNL     1       1.284   7.400  -0.149  0.00  0.00    +0.000 OA
BRANCH  23  25
ATOM     25  O   UNL     1      -0.436   6.547   1.039  0.00  0.00    +0.000 OA
ATOM     28  H   UNL     1      -0.745   5.737   1.482  0.00  0.00    +0.000 HD
ENDBRANCH  23  25
ENDBRANCH  22  23
ENDBRANCH   5  21
TORSDOF 9
