
 OpenBabel10112517123D

 43 44  0  0  0  0  0  0  0  0999 V2000
    1.0395   -0.1178   -0.0287 C   0  0  0  0  0  0  0  0  0  0  0  0
    2.4600   -0.1215   -0.0585 O   0  0  0  0  0  0  0  0  0  0  0  0
    3.1029    1.0902   -0.0554 C   0  0  0  0  0  0  0  0  0  0  0  0
    2.4549    2.3300   -0.0507 C   0  0  0  0  0  0  0  0  0  0  0  0
    3.1847    3.5289   -0.0432 C   0  0  0  0  0  0  0  0  0  0  0  0
    4.5875    3.4706   -0.0847 C   0  0  0  0  0  0  0  0  0  0  0  0
    5.2626    2.2397   -0.1019 C   0  0  0  0  0  0  0  0  0  0  0  0
    4.5076    1.0548   -0.0735 C   0  0  0  0  0  0  0  0  0  0  0  0
    5.1155   -0.1786   -0.0834 O   0  0  0  0  0  0  0  0  0  0  0  0
    6.7314    2.2338   -0.2065 C   0  0  0  0  0  0  0  0  0  0  0  0
    7.5455    2.2296    0.8626 C   0  0  0  0  0  0  0  0  0  0  0  0
    9.0187    2.1743    0.7873 C   0  0  0  0  0  0  0  0  0  0  0  0
    9.7517    2.7096   -0.2850 C   0  0  0  0  0  0  0  0  0  0  0  0
   11.1607    2.6560   -0.3450 C   0  0  0  0  0  0  0  0  0  0  0  0
   11.8414    2.0510    0.7127 C   0  0  0  0  0  0  0  0  0  0  0  0
   11.1255    1.5309    1.7975 C   0  0  0  0  0  0  0  0  0  0  0  0
    9.7307    1.5994    1.8407 C   0  0  0  0  0  0  0  0  0  0  0  0
   13.1906    1.8861    0.8285 O   0  0  0  0  0  0  0  0  0  0  0  0
   11.6293    3.2255   -1.4944 O   0  0  0  0  0  0  0  0  0  0  0  0
   13.0107    3.2754   -1.7893 C   0  0  0  0  0  0  0  0  0  0  0  0
    2.5177    4.8429   -0.0646 C   0  0  0  0  0  0  0  0  0  0  0  0
    1.3283    5.0997    0.5041 C   0  0  0  0  0  0  0  0  0  0  0  0
    0.7557    6.4585    0.4191 C   0  0  0  0  0  0  0  0  0  0  0  0
    1.2840    7.3999   -0.1488 O   0  0  0  0  0  0  0  0  0  0  0  0
   -0.4361    6.5473    1.0393 O   0  0  0  0  0  0  0  0  0  0  0  0
    0.6990   -1.1575   -0.0365 H   0  0  0  0  0  0  0  0  0  0  0  0
    0.6245    0.3725   -0.9158 H   0  0  0  0  0  0  0  0  0  0  0  0
    0.6662    0.3474    0.8899 H   0  0  0  0  0  0  0  0  0  0  0  0
    1.3723    2.3764   -0.0728 H   0  0  0  0  0  0  0  0  0  0  0  0
    5.1649    4.3937   -0.1143 H   0  0  0  0  0  0  0  0  0  0  0  0
    6.0767   -0.0561   -0.0382 H   0  0  0  0  0  0  0  0  0  0  0  0
    7.1111    2.1988   -1.2245 H   0  0  0  0  0  0  0  0  0  0  0  0
    7.1231    2.2360    1.8666 H   0  0  0  0  0  0  0  0  0  0  0  0
    9.2290    3.1909   -1.1095 H   0  0  0  0  0  0  0  0  0  0  0  0
   11.6655    1.0704    2.6221 H   0  0  0  0  0  0  0  0  0  0  0  0
    9.2143    1.1852    2.7039 H   0  0  0  0  0  0  0  0  0  0  0  0
   13.6527    2.5214    0.2708 H   0  0  0  0  0  0  0  0  0  0  0  0
   13.1232    3.7102   -2.7878 H   0  0  0  0  0  0  0  0  0  0  0  0
   13.4550    2.2762   -1.8161 H   0  0  0  0  0  0  0  0  0  0  0  0
   13.5315    3.9411   -1.0941 H   0  0  0  0  0  0  0  0  0  0  0  0
    3.0590    5.6411   -0.5731 H   0  0  0  0  0  0  0  0  0  0  0  0
    0.7712    4.3409    1.0349 H   0  0  0  0  0  0  0  0  0  0  0  0
   -0.7452    5.7374    1.4816 H   0  0  0  0  0  0  0  0  0  0  0  0
  1  2  1  0  0  0  0
  1 26  1  0  0  0  0
  1 27  1  0  0  0  0
  1 28  1  0  0  0  0
  2  3  1  0  0  0  0
  3  4  2  0  0  0  0
  3  8  1  0  0  0  0
  4  5  1  0  0  0  0
  4 29  1  0  0  0  0
  5  6  2  0  0  0  0
  5 21  1  0  0  0  0
  6  7  1  0  0  0  0
  6 30  1  0  0  0  0
  7  8  2  0  0  0  0
  7 10  1  0  0  0  0
  8  9  1  0  0  0  0
  9 31  1  0  0  0  0
 10 11  2  0  0  0  0
 10 32  1  0  0  0  0
 11 12  1  0  0  0  0
 11 33  1  0  0  0  0
 12 13  2  0  0  0  0
 12 17  1  0  0  0  0
 13 14  1  0  0  0  0
 13 34  1  0  0  0  0
 14 15  2  0  0  0  0
 14 19  1  0  0  0  0
 15 16  1  0  0  0  0
 15 18  1  0  0  0  0
 16 17  2  0  0  0  0
 16 35  1  0  0  0  0
 17 36  1  0  0  0  0
 18 37  1  0  0  0  0
 19 20  1  0  0  0  0
 20 38  1  0  0  0  0
 20 39  1  0  0  0  0
 20 40  1  0  0  0  0
 21 22  2  0  0  0  0
 21 41  1  0  0  0  0
 22 23  1  0  0  0  0
 22 42  1  0  0  0  0
 23 24  2  0  0  0  0
 23 25  1  0  0  0  0
 25 43  1  0  0  0  0
M  END
$$$$
