REMARK  Name = polioxinaD
REMARK  11 active torsions:
REMARK  status: ('A' for Active; 'I' for Inactive)
REMARK    1  A    between atoms: C_2  and  C_34
REMARK    2  A    between atoms: N_8  and  C_9
REMARK    3  A    between atoms: C_12  and  C_14
REMARK    4  A    between atoms: C_14  and  C_15
REMARK    5  A    between atoms: C_14  and  N_18
REMARK    6  A    between atoms: C_19  and  C_21
REMARK    7  A    between atoms: C_21  and  C_22
REMARK    8  A    between atoms: C_22  and  C_23
REMARK    9  A    between atoms: C_23  and  C_24
REMARK   10  A    between atoms: C_24  and  O_25
REMARK   11  A    between atoms: O_25  and  C_26
REMARK                            x       y       z     vdW  Elec       q    Type
REMARK                         _______ _______ _______ _____ _____    ______ ____
ROOT
ATOM      9  C   UNK A   2       0.000   0.000   0.000  0.00  0.00    +0.000 C 
ATOM     10  C   UNK A   2       0.000   0.000   0.000  0.00  0.00    +0.000 C 
ATOM     11  C   UNK A   2       0.000   0.000   0.000  0.00  0.00    +0.000 C 
ATOM     12  C   UNK A   2       0.000   0.000   0.000  0.00  0.00    +0.000 C 
ATOM     13  O   UNK A   2       0.000   0.000   0.000  0.00  0.00    +0.000 OA
ATOM     32  O   UNK A   2       0.000   0.000   0.000  0.00  0.00    +0.000 OA
ATOM     33  O   UNK A   2       0.000   0.000   0.000  0.00  0.00    +0.000 OA
ENDROOT
BRANCH   9   8
ATOM      1  C   UNK A   2       0.000   0.000   0.000  0.00  0.00    +0.000 A 
ATOM      2  C   UNK A   2       0.000   0.000   0.000  0.00  0.00    +0.000 A 
ATOM      3  C   UNK A   2       0.000   0.000   0.000  0.00  0.00    +0.000 A 
ATOM      4  O   UNK A   2       0.000   0.000   0.000  0.00  0.00    +0.000 OA
ATOM      5  N   UNK A   2       0.000   0.000   0.000  0.00  0.00    +0.000 NA
ATOM      6  C   UNK A   2       0.000   0.000   0.000  0.00  0.00    +0.000 A 
ATOM      7  O   UNK A   2       0.000   0.000   0.000  0.00  0.00    +0.000 OA
ATOM      8  N   UNK A   2       0.000   0.000   0.000  0.00  0.00    +0.000 N 
BRANCH   2  34
ATOM     34  C   UNK A   2       0.000   0.000   0.000  0.00  0.00    +0.000 C 
ATOM     35  O   UNK A   2       0.000   0.000   0.000  0.00  0.00    +0.000 OA
ATOM     36  O   UNK A   2       0.000   0.000   0.000  0.00  0.00    +0.000 OA
ENDBRANCH   2  34
ENDBRANCH   9   8
BRANCH  12  14
ATOM     14  C   UNK A   2       0.000   0.000   0.000  0.00  0.00    +0.000 C 
BRANCH  14  15
ATOM     15  C   UNK A   2       0.000   0.000   0.000  0.00  0.00    +0.000 C 
ATOM     16  O   UNK A   2       0.000   0.000   0.000  0.00  0.00    +0.000 OA
ATOM     17  O   UNK A   2       0.000   0.000   0.000  0.00  0.00    +0.000 OA
ENDBRANCH  14  15
BRANCH  14  18
ATOM     18  N   UNK A   2       0.000   0.000   0.000  0.00  0.00    +0.000 NA
ATOM     19  C   UNK A   1       0.000   0.000   0.000  0.00  0.00    +0.000 C 
ATOM     20  O   UNK A   1       0.000   0.000   0.000  0.00  0.00    +0.000 OA
BRANCH  19  21
ATOM     21  C   UNK A   1       0.000   0.000   0.000  0.00  0.00    +0.000 C 
ATOM     31  N   UNK A   1       0.000   0.000   0.000  0.00  0.00    +0.000 NA
BRANCH  21  22
ATOM     22  C   UNK A   1       0.000   0.000   0.000  0.00  0.00    +0.000 C 
ATOM     30  O   UNK A   1       0.000   0.000   0.000  0.00  0.00    +0.000 OA
BRANCH  22  23
ATOM     23  C   UNK A   1       0.000   0.000   0.000  0.00  0.00    +0.000 C 
ATOM     29  O   UNK A   1       0.000   0.000   0.000  0.00  0.00    +0.000 OA
BRANCH  23  24
ATOM     24  C   UNK A   1       0.000   0.000   0.000  0.00  0.00    +0.000 C 
BRANCH  24  25
ATOM     25  O   UNK A   1       0.000   0.000   0.000  0.00  0.00    +0.000 OA
BRANCH  25  26
ATOM     26  C   UNK A   1       0.000   0.000   0.000  0.00  0.00    +0.000 C 
ATOM     27  O   UNK A   1       0.000   0.000   0.000  0.00  0.00    +0.000 OA
ATOM     28  N   UNK A   1       0.000   0.000   0.000  0.00  0.00    +0.000 NA
ENDBRANCH  25  26
ENDBRANCH  24  25
ENDBRANCH  23  24
ENDBRANCH  22  23
ENDBRANCH  21  22
ENDBRANCH  19  21
ENDBRANCH  14  18
ENDBRANCH  12  14
TORSDOF 11
