REMARK  Name = 
REMARK  18 active torsions:
REMARK  status: ('A' for Active; 'I' for Inactive)
REMARK    1  A    between atoms: C_2  and  C_3
REMARK    2  A    between atoms: C_3  and  C_4
REMARK    3  A    between atoms: C_4  and  C_5
REMARK    4  A    between atoms: C_5  and  O_6
REMARK    5  A    between atoms: O_6  and  C_7
REMARK    6  A    between atoms: C_10  and  C_13
REMARK    7  A    between atoms: C_16  and  C_19
REMARK    8  A    between atoms: C_22  and  C_25
REMARK    9  A    between atoms: N_27  and  C_28
REMARK   10  A    between atoms: C_30  and  O_82
REMARK   11  A    between atoms: C_42  and  C_76
REMARK   12  A    between atoms: C_46  and  C_65
REMARK   13  A    between atoms: C_57  and  C_61
REMARK   14  A    between atoms: C_65  and  C_66
REMARK   15  A    between atoms: C_66  and  C_67
REMARK   16  A    between atoms: O_82  and  C_83
REMARK   17  A    between atoms: C_83  and  C_84
REMARK   18  A    between atoms: C_84  and  N_85
REMARK                            x       y       z     vdW  Elec       q    Type
REMARK                         _______ _______ _______ _____ _____    ______ ____
ROOT
ATOM     28  C   UNL     1       0.000   0.000   0.000  0.00  0.00    +0.000 C 
ATOM     29  C   UNL     1       0.000   0.000   0.000  0.00  0.00    +0.000 C 
ATOM     30  C   UNL     1       0.000   0.000   0.000  0.00  0.00    +0.000 C 
ATOM     31  C   UNL     1       0.000   0.000   0.000  0.00  0.00    +0.000 C 
ATOM     32  N   UNL     1       0.000   0.000   0.000  0.00  0.00    +0.000 NA
ATOM     33  C   UNL     1       0.000   0.000   0.000  0.00  0.00    +0.000 C 
ATOM     34  O   UNL     1       0.000   0.000   0.000  0.00  0.00    +0.000 OA
ATOM     35  C   UNL     1       0.000   0.000   0.000  0.00  0.00    +0.000 C 
ATOM     36  C   UNL     1       0.000   0.000   0.000  0.00  0.00    +0.000 C 
ATOM     37  C   UNL     1       0.000   0.000   0.000  0.00  0.00    +0.000 C 
ATOM     38  C   UNL     1       0.000   0.000   0.000  0.00  0.00    +0.000 C 
ATOM     39  N   UNL     1       0.000   0.000   0.000  0.00  0.00    +0.000 N 
ATOM     40  C   UNL     1       0.000   0.000   0.000  0.00  0.00    +0.000 C 
ATOM     41  O   UNL     1       0.000   0.000   0.000  0.00  0.00    +0.000 OA
ATOM     42  C   UNL     1       0.000   0.000   0.000  0.00  0.00    +0.000 C 
ATOM     43  N   UNL     1       0.000   0.000   0.000  0.00  0.00    +0.000 NA
ATOM     44  C   UNL     1       0.000   0.000   0.000  0.00  0.00    +0.000 C 
ATOM     45  O   UNL     1       0.000   0.000   0.000  0.00  0.00    +0.000 OA
ATOM     46  C   UNL     1       0.000   0.000   0.000  0.00  0.00    +0.000 C 
ATOM     47  N   UNL     1       0.000   0.000   0.000  0.00  0.00    +0.000 NA
ATOM     48  C   UNL     1       0.000   0.000   0.000  0.00  0.00    +0.000 C 
ATOM     49  O   UNL     1       0.000   0.000   0.000  0.00  0.00    +0.000 OA
ATOM     50  C   UNL     1       0.000   0.000   0.000  0.00  0.00    +0.000 C 
ATOM     51  C   UNL     1       0.000   0.000   0.000  0.00  0.00    +0.000 C 
ATOM     52  C   UNL     1       0.000   0.000   0.000  0.00  0.00    +0.000 C 
ATOM     53  C   UNL     1       0.000   0.000   0.000  0.00  0.00    +0.000 C 
ATOM     54  N   UNL     1       0.000   0.000   0.000  0.00  0.00    +0.000 N 
ATOM     55  C   UNL     1       0.000   0.000   0.000  0.00  0.00    +0.000 C 
ATOM     56  O   UNL     1       0.000   0.000   0.000  0.00  0.00    +0.000 OA
ATOM     57  C   UNL     1       0.000   0.000   0.000  0.00  0.00    +0.000 C 
ATOM     58  N   UNL     1       0.000   0.000   0.000  0.00  0.00    +0.000 NA
ATOM     59  C   UNL     1       0.000   0.000   0.000  0.00  0.00    +0.000 C 
ATOM     60  O   UNL     1       0.000   0.000   0.000  0.00  0.00    +0.000 OA
ATOM     64  O   UNL     1       0.000   0.000   0.000  0.00  0.00    +0.000 OA
ATOM     79  C   UNL     1       0.000   0.000   0.000  0.00  0.00    +0.000 C 
ATOM     80  O   UNL     1       0.000   0.000   0.000  0.00  0.00    +0.000 OA
ATOM     81  O   UNL     1       0.000   0.000   0.000  0.00  0.00    +0.000 OA
ENDROOT
BRANCH  28  27
ATOM     25  C   UNL     1       0.000   0.000   0.000  0.00  0.00    +0.000 C 
ATOM     26  O   UNL     1       0.000   0.000   0.000  0.00  0.00    +0.000 OA
ATOM     27  N   UNL     1       0.000   0.000   0.000  0.00  0.00    +0.000 NA
BRANCH  25  22
ATOM     19  C   UNL     1       0.000   0.000   0.000  0.00  0.00    +0.000 A 
ATOM     20  C   UNL     1       0.000   0.000   0.000  0.00  0.00    +0.000 A 
ATOM     21  C   UNL     1       0.000   0.000   0.000  0.00  0.00    +0.000 A 
ATOM     22  C   UNL     1       0.000   0.000   0.000  0.00  0.00    +0.000 A 
ATOM     23  C   UNL     1       0.000   0.000   0.000  0.00  0.00    +0.000 A 
ATOM     24  C   UNL     1       0.000   0.000   0.000  0.00  0.00    +0.000 A 
BRANCH  19  16
ATOM     13  C   UNL     1       0.000   0.000   0.000  0.00  0.00    +0.000 A 
ATOM     14  C   UNL     1       0.000   0.000   0.000  0.00  0.00    +0.000 A 
ATOM     15  C   UNL     1       0.000   0.000   0.000  0.00  0.00    +0.000 A 
ATOM     16  C   UNL     1       0.000   0.000   0.000  0.00  0.00    +0.000 A 
ATOM     17  C   UNL     1       0.000   0.000   0.000  0.00  0.00    +0.000 A 
ATOM     18  C   UNL     1       0.000   0.000   0.000  0.00  0.00    +0.000 A 
BRANCH  13  10
ATOM      7  C   UNL     1       0.000   0.000   0.000  0.00  0.00    +0.000 A 
ATOM      8  C   UNL     1       0.000   0.000   0.000  0.00  0.00    +0.000 A 
ATOM      9  C   UNL     1       0.000   0.000   0.000  0.00  0.00    +0.000 A 
ATOM     10  C   UNL     1       0.000   0.000   0.000  0.00  0.00    +0.000 A 
ATOM     11  C   UNL     1       0.000   0.000   0.000  0.00  0.00    +0.000 A 
ATOM     12  C   UNL     1       0.000   0.000   0.000  0.00  0.00    +0.000 A 
BRANCH   7   6
ATOM      6  O   UNL     1       0.000   0.000   0.000  0.00  0.00    +0.000 OA
BRANCH   6   5
ATOM      5  C   UNL     1       0.000   0.000   0.000  0.00  0.00    +0.000 C 
BRANCH   5   4
ATOM      4  C   UNL     1       0.000   0.000   0.000  0.00  0.00    +0.000 C 
BRANCH   4   3
ATOM      3  C   UNL     1       0.000   0.000   0.000  0.00  0.00    +0.000 C 
BRANCH   3   2
ATOM      1  C   UNL     1       0.000   0.000   0.000  0.00  0.00    +0.000 C 
ATOM      2  C   UNL     1       0.000   0.000   0.000  0.00  0.00    +0.000 C 
ENDBRANCH   3   2
ENDBRANCH   4   3
ENDBRANCH   5   4
ENDBRANCH   6   5
ENDBRANCH   7   6
ENDBRANCH  13  10
ENDBRANCH  19  16
ENDBRANCH  25  22
ENDBRANCH  28  27
BRANCH  57  61
ATOM     61  C   UNL     1       0.000   0.000   0.000  0.00  0.00    +0.000 C 
ATOM     62  C   UNL     1       0.000   0.000   0.000  0.00  0.00    +0.000 C 
ATOM     63  O   UNL     1       0.000   0.000   0.000  0.00  0.00    +0.000 OA
ENDBRANCH  57  61
BRANCH  42  76
ATOM     76  C   UNL     1       0.000   0.000   0.000  0.00  0.00    +0.000 C 
ATOM     77  C   UNL     1       0.000   0.000   0.000  0.00  0.00    +0.000 C 
ATOM     78  O   UNL     1       0.000   0.000   0.000  0.00  0.00    +0.000 OA
ENDBRANCH  42  76
BRANCH  46  65
ATOM     65  C   UNL     1       0.000   0.000   0.000  0.00  0.00    +0.000 C 
ATOM     75  O   UNL     1       0.000   0.000   0.000  0.00  0.00    +0.000 OA
BRANCH  65  66
ATOM     66  C   UNL     1       0.000   0.000   0.000  0.00  0.00    +0.000 C 
ATOM     74  O   UNL     1       0.000   0.000   0.000  0.00  0.00    +0.000 OA
BRANCH  66  67
ATOM     67  C   UNL     1       0.000   0.000   0.000  0.00  0.00    +0.000 A 
ATOM     68  C   UNL     1       0.000   0.000   0.000  0.00  0.00    +0.000 A 
ATOM     69  C   UNL     1       0.000   0.000   0.000  0.00  0.00    +0.000 A 
ATOM     70  C   UNL     1       0.000   0.000   0.000  0.00  0.00    +0.000 A 
ATOM     71  C   UNL     1       0.000   0.000   0.000  0.00  0.00    +0.000 A 
ATOM     72  C   UNL     1       0.000   0.000   0.000  0.00  0.00    +0.000 A 
ATOM     73  O   UNL     1       0.000   0.000   0.000  0.00  0.00    +0.000 OA
ENDBRANCH  66  67
ENDBRANCH  65  66
ENDBRANCH  46  65
BRANCH  30  82
ATOM     82  O   UNL     1       0.000   0.000   0.000  0.00  0.00    +0.000 OA
BRANCH  82  83
ATOM     83  C   UNL     1       0.000   0.000   0.000  0.00  0.00    +0.000 C 
BRANCH  83  84
ATOM     84  C   UNL     1       0.000   0.000   0.000  0.00  0.00    +0.000 C 
BRANCH  84  85
ATOM     85  N   UNL     1       0.000   0.000   0.000  0.00  0.00    +0.000 N 
ATOM     86  C   UNL     1       0.000   0.000   0.000  0.00  0.00    +0.000 C 
ATOM     87  C   UNL     1       0.000   0.000   0.000  0.00  0.00    +0.000 C 
ATOM     88  C   UNL     1       0.000   0.000   0.000  0.00  0.00    +0.000 C 
ENDBRANCH  84  85
ENDBRANCH  83  84
ENDBRANCH  82  83
ENDBRANCH  30  82
TORSDOF 18
