REMARK  Name = 
REMARK  18 active torsions:
REMARK  status: ('A' for Active; 'I' for Inactive)
REMARK    1  A    between atoms: C_2  and  C_3
REMARK    2  A    between atoms: C_3  and  C_4
REMARK    3  A    between atoms: C_4  and  C_5
REMARK    4  A    between atoms: C_5  and  O_6
REMARK    5  A    between atoms: O_6  and  C_7
REMARK    6  A    between atoms: C_10  and  C_13
REMARK    7  A    between atoms: C_16  and  C_19
REMARK    8  A    between atoms: C_22  and  C_25
REMARK    9  A    between atoms: N_27  and  C_28
REMARK   10  A    between atoms: C_30  and  O_82
REMARK   11  A    between atoms: C_42  and  C_76
REMARK   12  A    between atoms: C_46  and  C_65
REMARK   13  A    between atoms: C_57  and  C_61
REMARK   14  A    between atoms: C_65  and  C_66
REMARK   15  A    between atoms: C_66  and  C_67
REMARK   16  A    between atoms: O_82  and  C_83
REMARK   17  A    between atoms: C_83  and  C_84
REMARK   18  A    between atoms: C_84  and  N_85
REMARK                            x       y       z     vdW  Elec       q    Type
REMARK                         _______ _______ _______ _____ _____    ______ ____
ROOT
ATOM      1  C   UNL     1       0.000   0.000   0.000  0.00  0.00    +0.176 C 
ATOM      2  C   UNL     1       0.000   0.000   0.000  0.00  0.00    +0.065 C 
ATOM      3  C   UNL     1       0.000   0.000   0.000  0.00  0.00    +0.168 C 
ATOM      4  C   UNL     1       0.000   0.000   0.000  0.00  0.00    +0.273 C 
ATOM      5  N   UNL     1       0.000   0.000   0.000  0.00  0.00    -0.171 NA
ATOM      6  C   UNL     1       0.000   0.000   0.000  0.00  0.00    +0.264 C 
ATOM      7  O   UNL     1       0.000   0.000   0.000  0.00  0.00    -0.271 OA
ATOM      8  C   UNL     1       0.000   0.000   0.000  0.00  0.00    +0.184 C 
ATOM      9  C   UNL     1       0.000   0.000   0.000  0.00  0.00    +0.181 C 
ATOM     10  C   UNL     1       0.000   0.000   0.000  0.00  0.00    +0.052 C 
ATOM     11  C   UNL     1       0.000   0.000   0.000  0.00  0.00    +0.096 C 
ATOM     12  N   UNL     1       0.000   0.000   0.000  0.00  0.00    -0.269 N 
ATOM     13  C   UNL     1       0.000   0.000   0.000  0.00  0.00    +0.248 C 
ATOM     14  O   UNL     1       0.000   0.000   0.000  0.00  0.00    -0.273 OA
ATOM     15  C   UNL     1       0.000   0.000   0.000  0.00  0.00    +0.201 C 
ATOM     16  N   UNL     1       0.000   0.000   0.000  0.00  0.00    -0.194 NA
ATOM     17  C   UNL     1       0.000   0.000   0.000  0.00  0.00    +0.264 C 
ATOM     18  O   UNL     1       0.000   0.000   0.000  0.00  0.00    -0.271 OA
ATOM     19  C   UNL     1       0.000   0.000   0.000  0.00  0.00    +0.206 C 
ATOM     20  N   UNL     1       0.000   0.000   0.000  0.00  0.00    -0.194 NA
ATOM     21  C   UNL     1       0.000   0.000   0.000  0.00  0.00    +0.260 C 
ATOM     22  O   UNL     1       0.000   0.000   0.000  0.00  0.00    -0.272 OA
ATOM     23  C   UNL     1       0.000   0.000   0.000  0.00  0.00    +0.156 C 
ATOM     24  C   UNL     1       0.000   0.000   0.000  0.00  0.00    +0.064 C 
ATOM     25  C   UNL     1       0.000   0.000   0.000  0.00  0.00    +0.174 C 
ATOM     26  C   UNL     1       0.000   0.000   0.000  0.00  0.00    +0.127 C 
ATOM     27  N   UNL     1       0.000   0.000   0.000  0.00  0.00    -0.269 N 
ATOM     28  C   UNL     1       0.000   0.000   0.000  0.00  0.00    +0.248 C 
ATOM     29  O   UNL     1       0.000   0.000   0.000  0.00  0.00    -0.273 OA
ATOM     30  C   UNL     1       0.000   0.000   0.000  0.00  0.00    +0.201 C 
ATOM     31  N   UNL     1       0.000   0.000   0.000  0.00  0.00    -0.194 NA
ATOM     32  C   UNL     1       0.000   0.000   0.000  0.00  0.00    +0.262 C 
ATOM     33  O   UNL     1       0.000   0.000   0.000  0.00  0.00    -0.271 OA
ATOM     34  O   UNL     1       0.000   0.000   0.000  0.00  0.00    -0.221 OA
ATOM     35  C   UNL     1       0.000   0.000   0.000  0.00  0.00    +0.004 C 
ATOM     36  O   UNL     1       0.000   0.000   0.000  0.00  0.00    -0.221 OA
ATOM     37  O   UNL     1       0.000   0.000   0.000  0.00  0.00    -0.196 OA
ENDROOT
BRANCH   1  40
ATOM     38  C   UNL     1       0.000   0.000   0.000  0.00  0.00    +0.265 C 
ATOM     39  O   UNL     1       0.000   0.000   0.000  0.00  0.00    -0.268 OA
ATOM     40  N   UNL     1       0.000   0.000   0.000  0.00  0.00    -0.194 NA
BRANCH  38  44
ATOM     41  C   UNL     1       0.000   0.000   0.000  0.00  0.00    +0.000 A 
ATOM     42  C   UNL     1       0.000   0.000   0.000  0.00  0.00    +0.000 A 
ATOM     43  C   UNL     1       0.000   0.000   0.000  0.00  0.00    +0.005 A 
ATOM     44  C   UNL     1       0.000   0.000   0.000  0.00  0.00    +0.055 A 
ATOM     45  C   UNL     1       0.000   0.000   0.000  0.00  0.00    +0.005 A 
ATOM     46  C   UNL     1       0.000   0.000   0.000  0.00  0.00    +0.000 A 
BRANCH  41  50
ATOM     47  C   UNL     1       0.000   0.000   0.000  0.00  0.00    +0.000 A 
ATOM     48  C   UNL     1       0.000   0.000   0.000  0.00  0.00    +0.000 A 
ATOM     49  C   UNL     1       0.000   0.000   0.000  0.00  0.00    +0.000 A 
ATOM     50  C   UNL     1       0.000   0.000   0.000  0.00  0.00    +0.000 A 
ATOM     51  C   UNL     1       0.000   0.000   0.000  0.00  0.00    +0.000 A 
ATOM     52  C   UNL     1       0.000   0.000   0.000  0.00  0.00    +0.000 A 
BRANCH  47  56
ATOM     53  C   UNL     1       0.000   0.000   0.000  0.00  0.00    +0.139 A 
ATOM     54  C   UNL     1       0.000   0.000   0.000  0.00  0.00    +0.037 A 
ATOM     55  C   UNL     1       0.000   0.000   0.000  0.00  0.00    +0.003 A 
ATOM     56  C   UNL     1       0.000   0.000   0.000  0.00  0.00    +0.000 A 
ATOM     57  C   UNL     1       0.000   0.000   0.000  0.00  0.00    +0.003 A 
ATOM     58  C   UNL     1       0.000   0.000   0.000  0.00  0.00    +0.037 A 
BRANCH  53  59
ATOM     59  O   UNL     1       0.000   0.000   0.000  0.00  0.00    -0.475 OA
BRANCH  59  60
ATOM     60  C   UNL     1       0.000   0.000   0.000  0.00  0.00    +0.205 C 
BRANCH  60  61
ATOM     61  C   UNL     1       0.000   0.000   0.000  0.00  0.00    +0.047 C 
BRANCH  61  62
ATOM     62  C   UNL     1       0.000   0.000   0.000  0.00  0.00    +0.004 C 
BRANCH  62  64
ATOM     63  C   UNL     1       0.000   0.000   0.000  0.00  0.00    +0.000 C 
ATOM     64  C   UNL     1       0.000   0.000   0.000  0.00  0.00    +0.000 C 
ENDBRANCH  62  64
ENDBRANCH  61  62
ENDBRANCH  60  61
ENDBRANCH  59  60
ENDBRANCH  53  59
ENDBRANCH  47  56
ENDBRANCH  41  50
ENDBRANCH  38  44
ENDBRANCH   1  40
BRANCH  30  65
ATOM     65  C   UNL     1       0.000   0.000   0.000  0.00  0.00    +0.181 C 
ATOM     66  C   UNL     1       0.000   0.000   0.000  0.00  0.00    +0.038 C 
ATOM     67  O   UNL     1       0.000   0.000   0.000  0.00  0.00    -0.221 OA
ENDBRANCH  30  65
BRANCH  15  68
ATOM     68  C   UNL     1       0.000   0.000   0.000  0.00  0.00    +0.181 C 
ATOM     69  C   UNL     1       0.000   0.000   0.000  0.00  0.00    +0.038 C 
ATOM     70  O   UNL     1       0.000   0.000   0.000  0.00  0.00    -0.221 OA
ENDBRANCH  15  68
BRANCH  19  71
ATOM     71  C   UNL     1       0.000   0.000   0.000  0.00  0.00    +0.215 C 
ATOM     72  O   UNL     1       0.000   0.000   0.000  0.00  0.00    -0.218 OA
BRANCH  71  73
ATOM     73  C   UNL     1       0.000   0.000   0.000  0.00  0.00    +0.207 C 
ATOM     74  O   UNL     1       0.000   0.000   0.000  0.00  0.00    -0.215 OA
BRANCH  73  75
ATOM     75  C   UNL     1       0.000   0.000   0.000  0.00  0.00    +0.011 A 
ATOM     76  C   UNL     1       0.000   0.000   0.000  0.00  0.00    +0.002 A 
ATOM     77  C   UNL     1       0.000   0.000   0.000  0.00  0.00    +0.042 A 
ATOM     78  C   UNL     1       0.000   0.000   0.000  0.00  0.00    +0.196 A 
ATOM     79  C   UNL     1       0.000   0.000   0.000  0.00  0.00    +0.042 A 
ATOM     80  C   UNL     1       0.000   0.000   0.000  0.00  0.00    +0.002 A 
ATOM     81  O   UNL     1       0.000   0.000   0.000  0.00  0.00    -0.287 OA
ENDBRANCH  73  75
ENDBRANCH  71  73
ENDBRANCH  19  71
BRANCH   3  82
ATOM     82  O   UNL     1       0.000   0.000   0.000  0.00  0.00    -0.354 OA
BRANCH  82  83
ATOM     83  C   UNL     1       0.000   0.000   0.000  0.00  0.00    +0.120 C 
BRANCH  83  84
ATOM     84  C   UNL     1       0.000   0.000   0.000  0.00  0.00    -0.041 C 
BRANCH  84  85
ATOM     85  N   UNL     1       0.000   0.000   0.000  0.00  0.00    +0.387 N 
ATOM     86  C   UNL     1       0.000   0.000   0.000  0.00  0.00    -0.096 C 
ATOM     87  C   UNL     1       0.000   0.000   0.000  0.00  0.00    -0.096 C 
ATOM     88  C   UNL     1       0.000   0.000   0.000  0.00  0.00    -0.096 C 
ENDBRANCH  84  85
ENDBRANCH  83  84
ENDBRANCH  82  83
ENDBRANCH   3  82
TORSDOF 18
