
 OpenBabel10112517123D

 48 49  0  0  1  0  0  0  0  0999 V2000
    0.0556   -2.1274    0.1578 C   0  0  0  0  0  0  0  0  0  0  0  0
    1.4791   -1.6908   -0.2385 C   0  0  1  0  0  0  0  0  0  0  0  0
    1.7672   -0.2586    0.2177 C   0  0  2  0  0  0  0  0  0  0  0  0
    0.6925    0.7237   -0.2461 C   0  0  1  0  0  0  0  0  0  0  0  0
   -0.7206    0.2745    0.1290 C   0  0  2  0  0  0  0  0  0  0  0  0
   -1.0672   -1.1769   -0.3081 C   0  0  1  0  0  0  0  0  0  0  0  0
   -1.4262   -1.2353   -1.7599 N   0  0  0  0  0  0  0  0  0  0  0  0
   -1.9416   -2.5601   -2.2033 C   0  0  1  0  0  0  0  0  0  0  0  0
   -3.1623   -3.0405   -1.4473 C   0  0  0  0  0  0  0  0  0  0  0  0
   -4.4004   -3.1530   -1.9658 C   0  0  0  0  0  0  0  0  0  0  0  0
   -4.7391   -2.6518   -3.3468 C   0  0  2  0  0  0  0  0  0  0  0  0
   -3.5679   -2.0253   -4.1326 C   0  0  1  0  0  0  0  0  0  0  0  0
   -2.2133   -2.6327   -3.7329 C   0  0  1  0  0  0  0  0  0  0  0  0
   -1.1531   -2.0091   -4.4867 O   0  0  0  0  0  0  0  0  0  0  0  0
   -3.7751   -2.2455   -5.5437 O   0  0  0  0  0  0  0  0  0  0  0  0
   -5.7872   -1.6822   -3.2116 O   0  0  0  0  0  0  0  0  0  0  0  0
   -5.5529   -3.8304   -1.2579 C   0  0  0  0  0  0  0  0  0  0  0  0
   -5.1505   -4.3864   -0.0142 O   0  0  0  0  0  0  0  0  0  0  0  0
   -1.6412    1.2076   -0.4604 O   0  0  0  0  0  0  0  0  0  0  0  0
    0.9780    1.9968    0.3651 O   0  0  0  0  0  0  0  0  0  0  0  0
    3.0239    0.1630   -0.3281 O   0  0  0  0  0  0  0  0  0  0  0  0
    2.5251   -2.6421    0.3646 C   0  0  0  0  0  0  0  0  0  0  0  0
    2.3554   -3.9525   -0.1640 O   0  0  0  0  0  0  0  0  0  0  0  0
    0.0038   -2.1871    1.2542 H   0  0  0  0  0  0  0  0  0  0  0  0
   -0.1318   -3.1482   -0.1887 H   0  0  0  0  0  0  0  0  0  0  0  0
    1.5689   -1.7496   -1.3311 H   0  0  0  0  0  0  0  0  0  0  0  0
    1.8705   -0.2129    1.3110 H   0  0  0  0  0  0  0  0  0  0  0  0
    0.7701    0.8964   -1.3256 H   0  0  0  0  0  0  0  0  0  0  0  0
   -0.8514    0.3661    1.2147 H   0  0  0  0  0  0  0  0  0  0  0  0
   -1.9787   -1.4263    0.2470 H   0  0  0  0  0  0  0  0  0  0  0  0
   -0.5823   -1.0670   -2.3169 H   0  0  0  0  0  0  0  0  0  0  0  0
   -1.1384   -3.2885   -2.0363 H   0  0  0  0  0  0  0  0  0  0  0  0
   -2.9705   -3.3900   -0.4377 H   0  0  0  0  0  0  0  0  0  0  0  0
   -5.1604   -3.4798   -3.9305 H   0  0  0  0  0  0  0  0  0  0  0  0
   -3.5499   -0.9352   -4.0113 H   0  0  0  0  0  0  0  0  0  0  0  0
   -2.2002   -3.6868   -4.0429 H   0  0  0  0  0  0  0  0  0  0  0  0
   -1.3806   -1.0664   -4.5885 H   0  0  0  0  0  0  0  0  0  0  0  0
   -2.9058   -2.2027   -5.9810 H   0  0  0  0  0  0  0  0  0  0  0  0
   -5.4607   -0.9853   -2.6117 H   0  0  0  0  0  0  0  0  0  0  0  0
   -5.9497   -4.6437   -1.8755 H   0  0  0  0  0  0  0  0  0  0  0  0
   -6.3625   -3.1203   -1.0638 H   0  0  0  0  0  0  0  0  0  0  0  0
   -4.5770   -5.1433   -0.2207 H   0  0  0  0  0  0  0  0  0  0  0  0
   -1.8980    0.8002   -1.3139 H   0  0  0  0  0  0  0  0  0  0  0  0
    0.1371    2.4988    0.3347 H   0  0  0  0  0  0  0  0  0  0  0  0
    3.0542    1.1323   -0.1923 H   0  0  0  0  0  0  0  0  0  0  0  0
    3.5498   -2.3186    0.1540 H   0  0  0  0  0  0  0  0  0  0  0  0
    2.4153   -2.7033    1.4534 H   0  0  0  0  0  0  0  0  0  0  0  0
    2.7758   -3.9555   -1.0423 H   0  0  0  0  0  0  0  0  0  0  0  0
  1  2  1  0  0  0  0
  1  6  1  0  0  0  0
  1 24  1  0  0  0  0
  1 25  1  0  0  0  0
  2  3  1  0  0  0  0
  2 22  1  0  0  0  0
  2 26  1  6  0  0  0
  3  4  1  0  0  0  0
  3 21  1  0  0  0  0
  3 27  1  1  0  0  0
  4  5  1  0  0  0  0
  4 20  1  0  0  0  0
  4 28  1  6  0  0  0
  5  6  1  0  0  0  0
  5 19  1  0  0  0  0
  5 29  1  1  0  0  0
  6  7  1  0  0  0  0
  6 30  1  1  0  0  0
  7  8  1  0  0  0  0
  7 31  1  0  0  0  0
  8  9  1  0  0  0  0
  8 13  1  0  0  0  0
  8 32  1  1  0  0  0
  9 10  2  0  0  0  0
  9 33  1  0  0  0  0
 10 11  1  0  0  0  0
 10 17  1  0  0  0  0
 11 12  1  0  0  0  0
 11 16  1  0  0  0  0
 11 34  1  6  0  0  0
 12 13  1  0  0  0  0
 12 15  1  0  0  0  0
 12 35  1  1  0  0  0
 13 14  1  0  0  0  0
 13 36  1  6  0  0  0
 14 37  1  0  0  0  0
 15 38  1  0  0  0  0
 16 39  1  0  0  0  0
 17 18  1  0  0  0  0
 17 40  1  0  0  0  0
 17 41  1  0  0  0  0
 18 42  1  0  0  0  0
 19 43  1  0  0  0  0
 20 44  1  0  0  0  0
 21 45  1  0  0  0  0
 22 23  1  0  0  0  0
 22 46  1  0  0  0  0
 22 47  1  0  0  0  0
 23 48  1  0  0  0  0
M  END
$$$$
