
 OpenBabel10112517123D

 69 71  0  0  1  0  0  0  0  0999 V2000
    4.2964   -2.3892    4.0544 C   0  0  0  0  0  0  0  0  0  0  0  0
    3.9721   -2.1214    2.5666 C   0  0  1  0  0  0  0  0  0  0  0  0
    3.1147   -3.2716    1.9405 C   0  0  2  0  0  0  0  0  0  0  0  0
    3.6597   -4.6736    2.3428 C   0  0  1  0  0  0  0  0  0  0  0  0
    4.1321   -4.8036    3.8005 C   0  0  2  0  0  0  0  0  0  0  0  0
    5.0890   -3.6780    4.2370 C   0  0  1  0  0  0  0  0  0  0  0  0
    6.3620   -3.7065    3.4787 N   0  0  0  0  0  0  0  0  0  0  0  0
    7.2993   -2.5939    3.7699 C   0  0  1  0  0  0  0  0  0  0  0  0
    7.7976   -2.6172    5.1960 C   0  0  0  0  0  0  0  0  0  0  0  0
    8.9939   -3.1166    5.5384 C   0  0  0  0  0  0  0  0  0  0  0  0
    9.9135   -3.7937    4.5587 C   0  0  2  0  0  0  0  0  0  0  0  0
    9.4264   -3.8321    3.0903 C   0  0  1  0  0  0  0  0  0  0  0  0
    8.5033   -2.6396    2.7863 C   0  0  1  0  0  0  0  0  0  0  0  0
    8.0228   -2.7020    1.4336 O   0  0  0  0  0  0  0  0  0  0  0  0
   10.5615   -3.8534    2.2097 O   0  0  0  0  0  0  0  0  0  0  0  0
   10.1502   -5.1237    5.0464 O   0  0  0  0  0  0  0  0  0  0  0  0
    9.5379   -2.9632    6.9423 C   0  0  0  0  0  0  0  0  0  0  0  0
    9.6200   -4.2358    7.5593 O   0  0  0  0  0  0  0  0  0  0  0  0
    4.7123   -6.1026    3.9946 O   0  0  0  0  0  0  0  0  0  0  0  0
    2.6115   -5.6558    2.1585 O   0  0  0  0  0  0  0  0  0  0  0  0
    3.1216   -3.1325    0.4838 O   0  0  0  0  0  0  0  0  0  0  0  0
    2.3089   -4.0640   -0.2931 C   0  0  1  0  0  0  0  0  0  0  0  0
    0.7964   -3.8684    0.0422 C   0  0  1  0  0  0  0  0  0  0  0  0
   -0.1972   -4.1166   -1.1048 C   0  0  2  0  0  0  0  0  0  0  0  0
    0.3756   -3.9755   -2.5133 C   0  0  1  0  0  0  0  0  0  0  0  0
    1.7396   -4.6499   -2.5574 C   0  0  2  0  0  0  0  0  0  0  0  0
    2.6169   -3.8914   -1.6970 O   0  0  0  0  0  0  0  0  0  0  0  0
    2.2824   -4.6854   -3.9986 C   0  0  0  0  0  0  0  0  0  0  0  0
    3.4326   -5.5300   -4.0877 O   0  0  0  0  0  0  0  0  0  0  0  0
   -0.5275   -4.5338   -3.4748 O   0  0  0  0  0  0  0  0  0  0  0  0
   -1.3519   -3.2615   -0.9763 O   0  0  0  0  0  0  0  0  0  0  0  0
    0.3835   -4.7586    1.1093 O   0  0  0  0  0  0  0  0  0  0  0  0
    3.3537   -0.7184    2.4735 C   0  0  0  0  0  0  0  0  0  0  0  0
    2.2837   -0.5676    3.4011 O   0  0  0  0  0  0  0  0  0  0  0  0
    3.3615   -2.4728    4.6288 H   0  0  0  0  0  0  0  0  0  0  0  0
    4.8307   -1.5434    4.5010 H   0  0  0  0  0  0  0  0  0  0  0  0
    4.9023   -2.0663    1.9879 H   0  0  0  0  0  0  0  0  0  0  0  0
    2.0827   -3.1562    2.2893 H   0  0  0  0  0  0  0  0  0  0  0  0
    4.4631   -4.9708    1.6578 H   0  0  0  0  0  0  0  0  0  0  0  0
    3.2502   -4.7942    4.4538 H   0  0  0  0  0  0  0  0  0  0  0  0
    5.3186   -3.8345    5.2986 H   0  0  0  0  0  0  0  0  0  0  0  0
    6.8418   -4.5788    3.6911 H   0  0  0  0  0  0  0  0  0  0  0  0
    6.8008   -1.6367    3.5810 H   0  0  0  0  0  0  0  0  0  0  0  0
    7.1615   -2.1338    5.9365 H   0  0  0  0  0  0  0  0  0  0  0  0
   10.8879   -3.2890    4.5888 H   0  0  0  0  0  0  0  0  0  0  0  0
    8.9009   -4.7703    2.8833 H   0  0  0  0  0  0  0  0  0  0  0  0
    9.0772   -1.7055    2.8533 H   0  0  0  0  0  0  0  0  0  0  0  0
    7.1989   -3.2271    1.4676 H   0  0  0  0  0  0  0  0  0  0  0  0
   10.8344   -2.9364    2.0340 H   0  0  0  0  0  0  0  0  0  0  0  0
    9.3693   -5.6615    4.8278 H   0  0  0  0  0  0  0  0  0  0  0  0
    8.9016   -2.3212    7.5634 H   0  0  0  0  0  0  0  0  0  0  0  0
   10.5385   -2.5081    6.9237 H   0  0  0  0  0  0  0  0  0  0  0  0
   10.1059   -4.8122    6.9344 H   0  0  0  0  0  0  0  0  0  0  0  0
    5.5611   -6.1210    3.5225 H   0  0  0  0  0  0  0  0  0  0  0  0
    2.8224   -6.3950    2.7694 H   0  0  0  0  0  0  0  0  0  0  0  0
    2.6451   -5.0783   -0.0688 H   0  0  0  0  0  0  0  0  0  0  0  0
    0.6455   -2.8601    0.4421 H   0  0  0  0  0  0  0  0  0  0  0  0
   -0.6097   -5.1278   -0.9971 H   0  0  0  0  0  0  0  0  0  0  0  0
    0.4814   -2.9137   -2.7674 H   0  0  0  0  0  0  0  0  0  0  0  0
    1.6902   -5.6870   -2.1988 H   0  0  0  0  0  0  0  0  0  0  0  0
    2.5616   -3.6866   -4.3483 H   0  0  0  0  0  0  0  0  0  0  0  0
    1.5445   -5.1033   -4.6925 H   0  0  0  0  0  0  0  0  0  0  0  0
    3.9309   -5.4240   -3.2601 H   0  0  0  0  0  0  0  0  0  0  0  0
   -1.2098   -5.0531   -3.0102 H   0  0  0  0  0  0  0  0  0  0  0  0
   -1.2122   -2.4637   -1.5175 H   0  0  0  0  0  0  0  0  0  0  0  0
    1.1788   -5.1442    1.5359 H   0  0  0  0  0  0  0  0  0  0  0  0
    4.1200    0.0219    2.7440 H   0  0  0  0  0  0  0  0  0  0  0  0
    2.9942   -0.4848    1.4705 H   0  0  0  0  0  0  0  0  0  0  0  0
    2.1503    0.3890    3.5336 H   0  0  0  0  0  0  0  0  0  0  0  0
  1  2  1  0  0  0  0
  1  6  1  0  0  0  0
  1 35  1  0  0  0  0
  1 36  1  0  0  0  0
  2  3  1  0  0  0  0
  2 33  1  0  0  0  0
  2 37  1  6  0  0  0
  3  4  1  0  0  0  0
  3 21  1  0  0  0  0
  3 38  1  1  0  0  0
  4  5  1  0  0  0  0
  4 20  1  0  0  0  0
  4 39  1  6  0  0  0
  5  6  1  0  0  0  0
  5 19  1  0  0  0  0
  5 40  1  1  0  0  0
  6  7  1  0  0  0  0
  6 41  1  1  0  0  0
  7  8  1  0  0  0  0
  7 42  1  0  0  0  0
  8  9  1  0  0  0  0
  8 13  1  0  0  0  0
  8 43  1  6  0  0  0
  9 10  2  0  0  0  0
  9 44  1  0  0  0  0
 10 11  1  0  0  0  0
 10 17  1  0  0  0  0
 11 12  1  0  0  0  0
 11 16  1  0  0  0  0
 11 45  1  1  0  0  0
 12 13  1  0  0  0  0
 12 15  1  0  0  0  0
 12 46  1  6  0  0  0
 13 14  1  0  0  0  0
 13 47  1  1  0  0  0
 14 48  1  0  0  0  0
 15 49  1  0  0  0  0
 16 50  1  0  0  0  0
 17 18  1  0  0  0  0
 17 51  1  0  0  0  0
 17 52  1  0  0  0  0
 18 53  1  0  0  0  0
 19 54  1  0  0  0  0
 20 55  1  0  0  0  0
 22 23  1  0  0  0  0
 22 27  1  0  0  0  0
 22 21  1  0  0  0  0
 22 56  1  1  0  0  0
 23 24  1  0  0  0  0
 23 32  1  0  0  0  0
 23 57  1  1  0  0  0
 24 25  1  0  0  0  0
 24 31  1  0  0  0  0
 24 58  1  1  0  0  0
 25 26  1  0  0  0  0
 25 30  1  0  0  0  0
 25 59  1  6  0  0  0
 26 27  1  0  0  0  0
 26 28  1  0  0  0  0
 26 60  1  1  0  0  0
 28 29  1  0  0  0  0
 28 61  1  0  0  0  0
 28 62  1  0  0  0  0
 29 63  1  0  0  0  0
 30 64  1  0  0  0  0
 31 65  1  0  0  0  0
 32 66  1  0  0  0  0
 33 34  1  0  0  0  0
 33 67  1  0  0  0  0
 33 68  1  0  0  0  0
 34 69  1  0  0  0  0
M  END
$$$$
