REMARK  Name = 
REMARK  12 active torsions:
REMARK  status: ('A' for Active; 'I' for Inactive)
REMARK    1  A    between atoms: C_2  and  C_22
REMARK    2  A    between atoms: C_3  and  O_21
REMARK    3  A    between atoms: C_4  and  O_20
REMARK    4  A    between atoms: C_5  and  O_19
REMARK    5  A    between atoms: C_6  and  N_7
REMARK    6  A    between atoms: N_7  and  C_8
REMARK    7  A    between atoms: C_10  and  C_17
REMARK    8  A    between atoms: C_11  and  O_16
REMARK    9  A    between atoms: C_12  and  O_15
REMARK   10  A    between atoms: C_13  and  O_14
REMARK   11  A    between atoms: C_17  and  O_18
REMARK   12  A    between atoms: C_22  and  O_23
REMARK                            x       y       z     vdW  Elec       q    Type
REMARK                         _______ _______ _______ _____ _____    ______ ____
ROOT
ATOM      7  N   UNL     1      -1.426  -1.235  -1.760  0.00  0.00    +0.000 NA
ATOM     24  H   UNL     1      -0.582  -1.067  -2.317  0.00  0.00    +0.000 HD
ENDROOT
BRANCH   7   6
ATOM      1  C   UNL     1       0.056  -2.127   0.158  0.00  0.00    +0.000 C 
ATOM      2  C   UNL     1       1.479  -1.691  -0.238  0.00  0.00    +0.000 C 
ATOM      3  C   UNL     1       1.767  -0.259   0.218  0.00  0.00    +0.000 C 
ATOM      4  C   UNL     1       0.693   0.724  -0.246  0.00  0.00    +0.000 C 
ATOM      5  C   UNL     1      -0.721   0.275   0.129  0.00  0.00    +0.000 C 
ATOM      6  C   UNL     1      -1.067  -1.177  -0.308  0.00  0.00    +0.000 C 
BRANCH   5  19
ATOM     19  O   UNL     1      -1.641   1.208  -0.460  0.00  0.00    +0.000 OA
ATOM     29  H   UNL     1      -1.898   0.800  -1.314  0.00  0.00    +0.000 HD
ENDBRANCH   5  19
BRANCH   4  20
ATOM     20  O   UNL     1       0.978   1.997   0.365  0.00  0.00    +0.000 OA
ATOM     30  H   UNL     1       0.137   2.499   0.335  0.00  0.00    +0.000 HD
ENDBRANCH   4  20
BRANCH   3  21
ATOM     21  O   UNL     1       3.024   0.163  -0.328  0.00  0.00    +0.000 OA
ATOM     31  H   UNL     1       3.054   1.132  -0.192  0.00  0.00    +0.000 HD
ENDBRANCH   3  21
BRANCH   2  22
ATOM     22  C   UNL     1       2.525  -2.642   0.365  0.00  0.00    +0.000 C 
BRANCH  22  23
ATOM     23  O   UNL     1       2.355  -3.953  -0.164  0.00  0.00    +0.000 OA
ATOM     32  H   UNL     1       2.776  -3.955  -1.042  0.00  0.00    +0.000 HD
ENDBRANCH  22  23
ENDBRANCH   2  22
ENDBRANCH   7   6
BRANCH   7   8
ATOM      8  C   UNL     1      -1.942  -2.560  -2.203  0.00  0.00    +0.000 C 
ATOM      9  C   UNL     1      -3.162  -3.041  -1.447  0.00  0.00    +0.000 C 
ATOM     10  C   UNL     1      -4.400  -3.153  -1.966  0.00  0.00    +0.000 C 
ATOM     11  C   UNL     1      -4.739  -2.652  -3.347  0.00  0.00    +0.000 C 
ATOM     12  C   UNL     1      -3.568  -2.025  -4.133  0.00  0.00    +0.000 C 
ATOM     13  C   UNL     1      -2.213  -2.633  -3.733  0.00  0.00    +0.000 C 
BRANCH  13  14
ATOM     14  O   UNL     1      -1.153  -2.009  -4.487  0.00  0.00    +0.000 OA
ATOM     25  H   UNL     1      -1.381  -1.066  -4.588  0.00  0.00    +0.000 HD
ENDBRANCH  13  14
BRANCH  12  15
ATOM     15  O   UNL     1      -3.775  -2.245  -5.544  0.00  0.00    +0.000 OA
ATOM     26  H   UNL     1      -2.906  -2.203  -5.981  0.00  0.00    +0.000 HD
ENDBRANCH  12  15
BRANCH  11  16
ATOM     16  O   UNL     1      -5.787  -1.682  -3.212  0.00  0.00    +0.000 OA
ATOM     27  H   UNL     1      -5.461  -0.985  -2.612  0.00  0.00    +0.000 HD
ENDBRANCH  11  16
BRANCH  10  17
ATOM     17  C   UNL     1      -5.553  -3.830  -1.258  0.00  0.00    +0.000 C 
BRANCH  17  18
ATOM     18  O   UNL     1      -5.151  -4.386  -0.014  0.00  0.00    +0.000 OA
ATOM     28  H   UNL     1      -4.577  -5.143  -0.221  0.00  0.00    +0.000 HD
ENDBRANCH  17  18
ENDBRANCH  10  17
ENDBRANCH   7   8
TORSDOF 12
