REMARK  Name = 
REMARK  12 active torsions:
REMARK  status: ('A' for Active; 'I' for Inactive)
REMARK    1  A    between atoms: C_2  and  C_22
REMARK    2  A    between atoms: C_3  and  O_21
REMARK    3  A    between atoms: C_4  and  O_20
REMARK    4  A    between atoms: C_5  and  O_19
REMARK    5  A    between atoms: C_6  and  N_7
REMARK    6  A    between atoms: N_7  and  C_8
REMARK    7  A    between atoms: C_10  and  C_17
REMARK    8  A    between atoms: C_11  and  O_16
REMARK    9  A    between atoms: C_12  and  O_15
REMARK   10  A    between atoms: C_13  and  O_14
REMARK   11  A    between atoms: C_17  and  O_18
REMARK   12  A    between atoms: C_22  and  O_23
REMARK                            x       y       z     vdW  Elec       q    Type
REMARK                         _______ _______ _______ _____ _____    ______ ____
ROOT
ATOM      1  N   UNL     1      -1.446  -1.191  -1.734  0.00  0.00    -0.302 NA
ATOM      2  H   UNL     1      -0.605  -1.011  -2.293  0.00  0.00    +0.123 HD
ENDROOT
BRANCH   1   8
ATOM      3  C   UNL     1       0.044  -2.103   0.157  0.00  0.00    +0.029 C 
ATOM      4  C   UNL     1       1.451  -1.652  -0.279  0.00  0.00    +0.047 C 
ATOM      5  C   UNL     1       1.758  -0.255   0.263  0.00  0.00    +0.151 C 
ATOM      6  C   UNL     1       0.690   0.753  -0.161  0.00  0.00    +0.173 C 
ATOM      7  C   UNL     1      -0.735   0.300   0.170  0.00  0.00    +0.162 C 
ATOM      8  C   UNL     1      -1.083  -1.147  -0.284  0.00  0.00    +0.086 C 
BRANCH   7   9
ATOM      9  O   UNL     1      -1.635   1.242  -0.438  0.00  0.00    -0.388 OA
ATOM     10  H   UNL     1      -1.882   0.835  -1.294  0.00  0.00    +0.210 HD
ENDBRANCH   7   9
BRANCH   6  11
ATOM     11  O   UNL     1       0.975   1.996   0.508  0.00  0.00    -0.387 OA
ATOM     12  H   UNL     1       0.147   2.516   0.462  0.00  0.00    +0.210 HD
ENDBRANCH   6  11
BRANCH   5  13
ATOM     13  O   UNL     1       3.019   0.182  -0.255  0.00  0.00    -0.389 OA
ATOM     14  H   UNL     1       3.044   1.150  -0.101  0.00  0.00    +0.210 HD
ENDBRANCH   5  13
BRANCH   4  15
ATOM     15  C   UNL     1       2.517  -2.655   0.182  0.00  0.00    +0.162 C 
BRANCH  15  16
ATOM     16  O   UNL     1       2.283  -3.920  -0.427  0.00  0.00    -0.395 OA
ATOM     17  H   UNL     1       2.505  -3.824  -1.370  0.00  0.00    +0.209 HD
ENDBRANCH  15  16
ENDBRANCH   4  15
ENDBRANCH   1   8
BRANCH   1  18
ATOM     18  C   UNL     1      -1.953  -2.516  -2.193  0.00  0.00    +0.109 C 
ATOM     19  C   UNL     1      -3.176  -2.990  -1.459  0.00  0.00    -0.002 C 
ATOM     20  C   UNL     1      -4.417  -3.093  -1.977  0.00  0.00    -0.016 C 
ATOM     21  C   UNL     1      -4.743  -2.581  -3.362  0.00  0.00    +0.173 C 
ATOM     22  C   UNL     1      -3.561  -1.942  -4.125  0.00  0.00    +0.177 C 
ATOM     23  C   UNL     1      -2.215  -2.566  -3.727  0.00  0.00    +0.166 C 
BRANCH  23  24
ATOM     24  O   UNL     1      -1.143  -1.940  -4.460  0.00  0.00    -0.387 OA
ATOM     25  H   UNL     1      -1.372  -1.001  -4.574  0.00  0.00    +0.210 HD
ENDBRANCH  23  24
BRANCH  22  26
ATOM     26  O   UNL     1      -3.759  -2.133  -5.541  0.00  0.00    -0.386 OA
ATOM     27  H   UNL     1      -2.889  -2.064  -5.975  0.00  0.00    +0.210 HD
ENDBRANCH  22  26
BRANCH  21  28
ATOM     28  O   UNL     1      -5.794  -1.621  -3.225  0.00  0.00    -0.385 OA
ATOM     29  H   UNL     1      -5.483  -0.939  -2.604  0.00  0.00    +0.210 HD
ENDBRANCH  21  28
BRANCH  20  30
ATOM     30  C   UNL     1      -5.578  -3.780  -1.292  0.00  0.00    +0.189 C 
BRANCH  30  31
ATOM     31  O   UNL     1      -5.185  -4.370  -0.059  0.00  0.00    -0.391 OA
ATOM     32  H   UNL     1      -4.639  -5.143  -0.280  0.00  0.00    +0.210 HD
ENDBRANCH  30  31
ENDBRANCH  20  30
ENDBRANCH   1  18
TORSDOF 12
