REMARK  Name = 
REMARK  18 active torsions:
REMARK  status: ('A' for Active; 'I' for Inactive)
REMARK    1  A    between atoms: C_2  and  C_33
REMARK    2  A    between atoms: C_3  and  O_21
REMARK    3  A    between atoms: C_4  and  O_20
REMARK    4  A    between atoms: C_5  and  O_19
REMARK    5  A    between atoms: C_6  and  N_7
REMARK    6  A    between atoms: N_7  and  C_8
REMARK    7  A    between atoms: C_10  and  C_17
REMARK    8  A    between atoms: C_11  and  O_16
REMARK    9  A    between atoms: C_12  and  O_15
REMARK   10  A    between atoms: C_13  and  O_14
REMARK   11  A    between atoms: C_17  and  O_18
REMARK   12  A    between atoms: O_21  and  C_22
REMARK   13  A    between atoms: C_23  and  O_32
REMARK   14  A    between atoms: C_24  and  O_31
REMARK   15  A    between atoms: C_25  and  O_30
REMARK   16  A    between atoms: C_26  and  C_28
REMARK   17  A    between atoms: C_28  and  O_29
REMARK   18  A    between atoms: C_33  and  O_34
REMARK                            x       y       z     vdW  Elec       q    Type
REMARK                         _______ _______ _______ _____ _____    ______ ____
ROOT
ATOM      1  C   UNL     1       4.296  -2.389   4.054  0.00  0.00    +0.000 C 
ATOM      2  C   UNL     1       3.972  -2.121   2.567  0.00  0.00    +0.000 C 
ATOM      3  C   UNL     1       3.115  -3.272   1.940  0.00  0.00    +0.000 C 
ATOM      4  C   UNL     1       3.660  -4.674   2.343  0.00  0.00    +0.000 C 
ATOM      5  C   UNL     1       4.132  -4.804   3.800  0.00  0.00    +0.000 C 
ATOM      6  C   UNL     1       5.089  -3.678   4.237  0.00  0.00    +0.000 C 
ENDROOT
BRANCH   4  20
ATOM     20  O   UNL     1       2.611  -5.656   2.159  0.00  0.00    +0.000 OA
ATOM     41  H   UNL     1       2.822  -6.395   2.769  0.00  0.00    +0.000 HD
ENDBRANCH   4  20
BRANCH   5  19
ATOM     19  O   UNL     1       4.712  -6.103   3.995  0.00  0.00    +0.000 OA
ATOM     40  H   UNL     1       5.561  -6.121   3.522  0.00  0.00    +0.000 HD
ENDBRANCH   5  19
BRANCH   6   7
ATOM      7  N   UNL     1       6.362  -3.707   3.479  0.00  0.00    +0.000 NA
ATOM     35  H   UNL     1       6.842  -4.579   3.691  0.00  0.00    +0.000 HD
BRANCH   7   8
ATOM      8  C   UNL     1       7.299  -2.594   3.770  0.00  0.00    +0.000 C 
ATOM      9  C   UNL     1       7.798  -2.617   5.196  0.00  0.00    +0.000 C 
ATOM     10  C   UNL     1       8.994  -3.117   5.538  0.00  0.00    +0.000 C 
ATOM     11  C   UNL     1       9.914  -3.794   4.559  0.00  0.00    +0.000 C 
ATOM     12  C   UNL     1       9.426  -3.832   3.090  0.00  0.00    +0.000 C 
ATOM     13  C   UNL     1       8.503  -2.640   2.786  0.00  0.00    +0.000 C 
BRANCH  11  16
ATOM     16  O   UNL     1      10.150  -5.124   5.046  0.00  0.00    +0.000 OA
ATOM     38  H   UNL     1       9.369  -5.662   4.828  0.00  0.00    +0.000 HD
ENDBRANCH  11  16
BRANCH  12  15
ATOM     15  O   UNL     1      10.562  -3.853   2.210  0.00  0.00    +0.000 OA
ATOM     37  H   UNL     1      10.834  -2.936   2.034  0.00  0.00    +0.000 HD
ENDBRANCH  12  15
BRANCH  13  14
ATOM     14  O   UNL     1       8.023  -2.702   1.434  0.00  0.00    +0.000 OA
ATOM     36  H   UNL     1       7.199  -3.227   1.468  0.00  0.00    +0.000 HD
ENDBRANCH  13  14
BRANCH  10  17
ATOM     17  C   UNL     1       9.538  -2.963   6.942  0.00  0.00    +0.000 C 
BRANCH  17  18
ATOM     18  O   UNL     1       9.620  -4.236   7.559  0.00  0.00    +0.000 OA
ATOM     39  H   UNL     1      10.106  -4.812   6.934  0.00  0.00    +0.000 HD
ENDBRANCH  17  18
ENDBRANCH  10  17
ENDBRANCH   7   8
ENDBRANCH   6   7
BRANCH   3  21
ATOM     21  O   UNL     1       3.122  -3.132   0.484  0.00  0.00    +0.000 OA
BRANCH  21  22
ATOM     22  C   UNL     1       2.309  -4.064  -0.293  0.00  0.00    +0.000 C 
ATOM     23  C   UNL     1       0.796  -3.868   0.042  0.00  0.00    +0.000 C 
ATOM     24  C   UNL     1      -0.197  -4.117  -1.105  0.00  0.00    +0.000 C 
ATOM     25  C   UNL     1       0.376  -3.975  -2.513  0.00  0.00    +0.000 C 
ATOM     26  C   UNL     1       1.740  -4.650  -2.557  0.00  0.00    +0.000 C 
ATOM     27  O   UNL     1       2.617  -3.891  -1.697  0.00  0.00    +0.000 OA
BRANCH  23  32
ATOM     32  O   UNL     1       0.384  -4.759   1.109  0.00  0.00    +0.000 OA
ATOM     45  H   UNL     1       1.179  -5.144   1.536  0.00  0.00    +0.000 HD
ENDBRANCH  23  32
BRANCH  24  31
ATOM     31  O   UNL     1      -1.352  -3.261  -0.976  0.00  0.00    +0.000 OA
ATOM     44  H   UNL     1      -1.212  -2.464  -1.518  0.00  0.00    +0.000 HD
ENDBRANCH  24  31
BRANCH  25  30
ATOM     30  O   UNL     1      -0.527  -4.534  -3.475  0.00  0.00    +0.000 OA
ATOM     43  H   UNL     1      -1.210  -5.053  -3.010  0.00  0.00    +0.000 HD
ENDBRANCH  25  30
BRANCH  26  28
ATOM     28  C   UNL     1       2.282  -4.685  -3.999  0.00  0.00    +0.000 C 
BRANCH  28  29
ATOM     29  O   UNL     1       3.433  -5.530  -4.088  0.00  0.00    +0.000 OA
ATOM     42  H   UNL     1       3.931  -5.424  -3.260  0.00  0.00    +0.000 HD
ENDBRANCH  28  29
ENDBRANCH  26  28
ENDBRANCH  21  22
ENDBRANCH   3  21
BRANCH   2  33
ATOM     33  C   UNL     1       3.354  -0.718   2.474  0.00  0.00    +0.000 C 
BRANCH  33  34
ATOM     34  O   UNL     1       2.284  -0.568   3.401  0.00  0.00    +0.000 OA
ATOM     46  H   UNL     1       2.150   0.389   3.534  0.00  0.00    +0.000 HD
ENDBRANCH  33  34
ENDBRANCH   2  33
TORSDOF 18
