MODEL 1
REMARK VINA RESULT:     0.000      0.000      0.000
REMARK INTER + INTRA:          -3.570
REMARK INTER:                   0.000
REMARK INTRA:                  -3.570
REMARK UNBOUND:                -3.570
REMARK  Name = 456557
REMARK  15 active torsions:
REMARK  status: ('A' for Active; 'I' for Inactive)
REMARK    1  A    between atoms: O_2  and  C_17
REMARK    2  A    between atoms: O_3  and  C_18
REMARK    3  A    between atoms: O_4  and  C_22
REMARK    4  A    between atoms: O_7  and  C_27
REMARK    5  A    between atoms: O_10  and  C_35
REMARK    6  A    between atoms: N_11  and  C_19
REMARK    7  A    between atoms: N_12  and  CA_20
REMARK    8  A    between atoms: N_13  and  CA_21
REMARK    9  A    between atoms: C_16  and  CA_20
REMARK   10  A    between atoms: CA_20  and  C_22
REMARK   11  A    between atoms: CA_21  and  C_23
REMARK   12  A    between atoms: CA_21  and  C_24
REMARK   13  A    between atoms: C_23  and  C_27
REMARK   14  A    between atoms: C_23  and  C_28
REMARK   15  A    between atoms: C_27  and  C_30
REMARK                            x       y       z     vdW  Elec       q    Type
REMARK                         _______ _______ _______ _____ _____    ______ ____
ROOT
ATOM      1  CA  UNL     1       4.579   2.711  -5.582  0.00  0.00    +0.213 C 
ENDROOT
BRANCH   1   3
ATOM      2  O   UNL     1       2.297   1.813  -5.902  0.00  0.00    -0.345 OA
ATOM      3  C   UNL     1       3.188   2.461  -4.947  0.00  0.00    +0.183 C 
ATOM      4  C   UNL     1       3.216   1.522  -3.740  0.00  0.00    +0.178 C 
ATOM      5  C   UNL     1       3.016   0.143  -4.359  0.00  0.00    +0.195 C 
ATOM      6  C   UNL     1       1.990   0.478  -5.442  0.00  0.00    +0.255 C 
BRANCH   6   9
ATOM      7  O   UNL     1       0.555  -1.973  -5.494  0.00  0.00    -0.246 OA
ATOM      8  O   UNL     1       2.488  -3.205  -9.389  0.00  0.00    -0.268 OA
ATOM      9  N   UNL     1       1.897  -0.432  -6.588  0.00  0.00    -0.271 N 
ATOM     10  N   UNL     1       1.381  -2.513  -7.521  0.00  0.00    -0.275 N 
ATOM     11  C   UNL     1       1.223  -1.639  -6.475  0.00  0.00    +0.331 A 
ATOM     12  C   UNL     1       2.534  -0.081  -7.766  0.00  0.00    +0.098 A 
ATOM     13  C   UNL     1       2.685  -0.942  -8.775  0.00  0.00    +0.088 A 
ATOM     14  C   UNL     1       2.185  -2.315  -8.606  0.00  0.00    +0.254 A 
ATOM     15  H   UNL     1       1.029  -3.449  -7.392  0.00  0.00    +0.173 HD
ENDBRANCH   6   9
BRANCH   4  16
ATOM     16  O   UNL     1       2.075   1.727  -2.870  0.00  0.00    -0.386 OA
ATOM     17  H   UNL     1       2.217   1.230  -2.041  0.00  0.00    +0.210 HD
ENDBRANCH   4  16
BRANCH   5  18
ATOM     18  O   UNL     1       2.509  -0.772  -3.387  0.00  0.00    -0.385 OA
ATOM     19  H   UNL     1       2.433  -0.258  -2.551  0.00  0.00    +0.210 HD
ENDBRANCH   5  18
ENDBRANCH   1   3
BRANCH   1  21
ATOM     20  O   UNL     1       6.865   1.058  -6.165  0.00  0.00    -0.274 OA
ATOM     21  N   UNL     1       5.755   2.450  -4.729  0.00  0.00    -0.299 N 
ATOM     22  C   UNL     1       6.735   1.525  -5.041  0.00  0.00    +0.231 C 
ATOM     23  H   UNL     1       5.703   2.662  -3.735  0.00  0.00    +0.150 HD
BRANCH  22  24
ATOM     24  CA  UNL     1       7.630   1.086  -3.838  0.00  0.00    +0.143 C 
BRANCH  24  25
ATOM     25  N   UNL     1       7.874   2.292  -2.991  0.00  0.00    -0.320 NA
ATOM     26  H1  UNL     1       8.880   2.465  -2.961  0.00  0.00    +0.119 HD
ATOM     27  H2  UNL     1       7.495   3.099  -3.491  0.00  0.00    +0.119 HD
ENDBRANCH  24  25
BRANCH  24  28
ATOM     28  C   UNL     1       6.991  -0.062  -3.004  0.00  0.00    +0.046 C 
ATOM     29  C   UNL     1       7.309   0.031  -1.493  0.00  0.00    +0.012 C 
BRANCH  28  30
ATOM     30  C   UNL     1       7.315  -1.473  -3.581  0.00  0.00    +0.168 C 
BRANCH  30  32
ATOM     31  N   UNL     1       5.446  -3.058  -3.189  0.00  0.00    -0.254 NA
ATOM     32  C   UNL     1       6.137  -2.298  -4.077  0.00  0.00    +0.070 A 
ATOM     33  C   UNL     1       5.757  -2.211  -5.419  0.00  0.00    +0.029 A 
ATOM     34  C   UNL     1       4.633  -2.908  -5.857  0.00  0.00    +0.049 A 
ATOM     35  C   UNL     1       4.352  -3.711  -3.636  0.00  0.00    +0.156 A 
ATOM     36  C   UNL     1       3.911  -3.659  -4.947  0.00  0.00    +0.135 A 
BRANCH  36  37
ATOM     37  O   UNL     1       2.792  -4.306  -5.374  0.00  0.00    -0.505 OA
ATOM     38  H   UNL     1       2.984  -4.725  -6.229  0.00  0.00    +0.292 HD
ENDBRANCH  36  37
ENDBRANCH  30  32
BRANCH  30  39
ATOM     39  O   UNL     1       8.260  -1.342  -4.654  0.00  0.00    -0.385 OA
ATOM     40  H   UNL     1       8.369  -0.389  -4.815  0.00  0.00    +0.210 HD
ENDBRANCH  30  39
ENDBRANCH  28  30
ENDBRANCH  24  28
ENDBRANCH  22  24
ENDBRANCH   1  21
BRANCH   1  42
ATOM     41  OXT UNL     1       5.686   4.822  -6.175  0.00  0.00    -0.249 OA
ATOM     42  C   UNL     1       4.655   4.165  -6.091  0.00  0.00    +0.328 C 
BRANCH  42  43
ATOM     43  O   UNL     1       3.469   4.685  -6.477  0.00  0.00    -0.479 OA
ATOM     44  H   UNL     1       2.792   4.004  -6.717  0.00  0.00    +0.295 HD
ENDBRANCH  42  43
ENDBRANCH   1  42
TORSDOF 14
ENDMDL
MODEL 2
REMARK VINA RESULT:     0.001     10.206     12.821
REMARK INTER + INTRA:          -3.569
REMARK INTER:                   0.000
REMARK INTRA:                  -3.569
REMARK UNBOUND:                -3.570
REMARK  Name = 456557
REMARK  15 active torsions:
REMARK  status: ('A' for Active; 'I' for Inactive)
REMARK    1  A    between atoms: O_2  and  C_17
REMARK    2  A    between atoms: O_3  and  C_18
REMARK    3  A    between atoms: O_4  and  C_22
REMARK    4  A    between atoms: O_7  and  C_27
REMARK    5  A    between atoms: O_10  and  C_35
REMARK    6  A    between atoms: N_11  and  C_19
REMARK    7  A    between atoms: N_12  and  CA_20
REMARK    8  A    between atoms: N_13  and  CA_21
REMARK    9  A    between atoms: C_16  and  CA_20
REMARK   10  A    between atoms: CA_20  and  C_22
REMARK   11  A    between atoms: CA_21  and  C_23
REMARK   12  A    between atoms: CA_21  and  C_24
REMARK   13  A    between atoms: C_23  and  C_27
REMARK   14  A    between atoms: C_23  and  C_28
REMARK   15  A    between atoms: C_27  and  C_30
REMARK                            x       y       z     vdW  Elec       q    Type
REMARK                         _______ _______ _______ _____ _____    ______ ____
ROOT
ATOM      1  CA  UNL     1      -1.257   0.251   2.843  0.00  0.00    +0.213 C 
ENDROOT
BRANCH   1   3
ATOM      2  O   UNL     1       0.580  -1.294   3.440  0.00  0.00    -0.345 OA
ATOM      3  C   UNL     1      -0.287  -0.852   2.353  0.00  0.00    +0.183 C 
ATOM      4  C   UNL     1      -0.985  -2.124   1.870  0.00  0.00    +0.178 C 
ATOM      5  C   UNL     1      -1.082  -2.977   3.130  0.00  0.00    +0.195 C 
ATOM      6  C   UNL     1       0.271  -2.666   3.772  0.00  0.00    +0.255 C 
BRANCH   6   9
ATOM      7  O   UNL     1       0.752  -5.149   5.064  0.00  0.00    -0.246 OA
ATOM      8  O   UNL     1      -0.225  -3.410   9.119  0.00  0.00    -0.268 OA
ATOM      9  N   UNL     1       0.392  -2.866   5.220  0.00  0.00    -0.271 N 
ATOM     10  N   UNL     1       0.438  -4.247   7.105  0.00  0.00    -0.275 N 
ATOM     11  C   UNL     1       0.559  -4.139   5.743  0.00  0.00    +0.331 A 
ATOM     12  C   UNL     1       0.291  -1.762   6.051  0.00  0.00    +0.098 A 
ATOM     13  C   UNL     1       0.170  -1.881   7.375  0.00  0.00    +0.088 A 
ATOM     14  C   UNL     1       0.109  -3.231   7.956  0.00  0.00    +0.254 A 
ATOM     15  H   UNL     1       0.402  -5.179   7.489  0.00  0.00    +0.173 HD
ENDBRANCH   6   9
BRANCH   4  16
ATOM     16  O   UNL     1      -0.157  -2.880   0.952  0.00  0.00    -0.386 OA
ATOM     17  H   UNL     1      -0.351  -2.590   0.040  0.00  0.00    +0.210 HD
ENDBRANCH   4  16
BRANCH   5  18
ATOM     18  O   UNL     1      -1.224  -4.356   2.791  0.00  0.00    -0.385 OA
ATOM     19  H   UNL     1      -2.188  -4.548   2.859  0.00  0.00    +0.210 HD
ENDBRANCH   5  18
ENDBRANCH   1   3
BRANCH   1  21
ATOM     20  O   UNL     1      -3.679   0.272   4.402  0.00  0.00    -0.274 OA
ATOM     21  N   UNL     1      -2.650   0.172   2.362  0.00  0.00    -0.299 N 
ATOM     22  C   UNL     1      -3.742   0.045   3.201  0.00  0.00    +0.231 C 
ATOM     23  H   UNL     1      -2.829  -0.155   1.415  0.00  0.00    +0.150 HD
BRANCH  22  24
ATOM     24  CA  UNL     1      -5.049  -0.460   2.507  0.00  0.00    +0.143 C 
BRANCH  24  25
ATOM     25  N   UNL     1      -5.116   0.174   1.156  0.00  0.00    -0.320 NA
ATOM     26  H1  UNL     1      -6.060   0.046   0.789  0.00  0.00    +0.119 HD
ATOM     27  H2  UNL     1      -5.031   1.184   1.286  0.00  0.00    +0.119 HD
ENDBRANCH  24  25
BRANCH  24  28
ATOM     28  C   UNL     1      -5.109  -2.011   2.401  0.00  0.00    +0.046 C 
ATOM     29  C   UNL     1      -5.813  -2.508   1.116  0.00  0.00    +0.012 C 
BRANCH  28  30
ATOM     30  C   UNL     1      -5.698  -2.676   3.681  0.00  0.00    +0.168 C 
BRANCH  30  32
ATOM     31  N   UNL     1      -4.672  -4.898   4.095  0.00  0.00    -0.254 NA
ATOM     32  C   UNL     1      -4.771  -3.595   4.464  0.00  0.00    +0.070 A 
ATOM     33  C   UNL     1      -4.002  -3.067   5.504  0.00  0.00    +0.029 A 
ATOM     34  C   UNL     1      -3.099  -3.892   6.172  0.00  0.00    +0.049 A 
ATOM     35  C   UNL     1      -3.778  -5.671   4.748  0.00  0.00    +0.156 A 
ATOM     36  C   UNL     1      -2.976  -5.212   5.777  0.00  0.00    +0.135 A 
BRANCH  36  37
ATOM     37  O   UNL     1      -2.063  -6.001   6.409  0.00  0.00    -0.505 OA
ATOM     38  H   UNL     1      -1.221  -5.944   5.929  0.00  0.00    +0.292 HD
ENDBRANCH  36  37
ENDBRANCH  30  32
BRANCH  30  39
ATOM     39  O   UNL     1      -6.179  -1.655   4.568  0.00  0.00    -0.385 OA
ATOM     40  H   UNL     1      -7.012  -1.328   4.191  0.00  0.00    +0.210 HD
ENDBRANCH  30  39
ENDBRANCH  28  30
ENDBRANCH  24  28
ENDBRANCH  22  24
ENDBRANCH   1  21
BRANCH   1  42
ATOM     41  OXT UNL     1      -1.365   2.633   2.252  0.00  0.00    -0.249 OA
ATOM     42  C   UNL     1      -0.688   1.635   2.470  0.00  0.00    +0.328 C 
BRANCH  42  43
ATOM     43  O   UNL     1       0.663   1.690   2.419  0.00  0.00    -0.479 OA
ATOM     44  H   UNL     1       1.014   2.200   1.647  0.00  0.00    +0.295 HD
ENDBRANCH  42  43
ENDBRANCH   1  42
TORSDOF 14
ENDMDL
MODEL 3
REMARK VINA RESULT:     0.001     11.814     14.556
REMARK INTER + INTRA:          -3.569
REMARK INTER:                   0.000
REMARK INTRA:                  -3.569
REMARK UNBOUND:                -3.570
REMARK  Name = 456557
REMARK  15 active torsions:
REMARK  status: ('A' for Active; 'I' for Inactive)
REMARK    1  A    between atoms: O_2  and  C_17
REMARK    2  A    between atoms: O_3  and  C_18
REMARK    3  A    between atoms: O_4  and  C_22
REMARK    4  A    between atoms: O_7  and  C_27
REMARK    5  A    between atoms: O_10  and  C_35
REMARK    6  A    between atoms: N_11  and  C_19
REMARK    7  A    between atoms: N_12  and  CA_20
REMARK    8  A    between atoms: N_13  and  CA_21
REMARK    9  A    between atoms: C_16  and  CA_20
REMARK   10  A    between atoms: CA_20  and  C_22
REMARK   11  A    between atoms: CA_21  and  C_23
REMARK   12  A    between atoms: CA_21  and  C_24
REMARK   13  A    between atoms: C_23  and  C_27
REMARK   14  A    between atoms: C_23  and  C_28
REMARK   15  A    between atoms: C_27  and  C_30
REMARK                            x       y       z     vdW  Elec       q    Type
REMARK                         _______ _______ _______ _____ _____    ______ ____
ROOT
ATOM      1  CA  UNL     1      -1.618  -1.322   3.054  0.00  0.00    +0.213 C 
ENDROOT
BRANCH   1   3
ATOM      2  O   UNL     1      -0.445  -1.241   5.230  0.00  0.00    -0.345 OA
ATOM      3  C   UNL     1      -1.013  -2.134   4.226  0.00  0.00    +0.183 C 
ATOM      4  C   UNL     1      -2.034  -2.979   4.989  0.00  0.00    +0.178 C 
ATOM      5  C   UNL     1      -2.522  -2.040   6.087  0.00  0.00    +0.195 C 
ATOM      6  C   UNL     1      -1.210  -1.344   6.451  0.00  0.00    +0.255 C 
BRANCH   6   9
ATOM      7  O   UNL     1      -1.683  -0.879   9.213  0.00  0.00    -0.246 OA
ATOM      8  O   UNL     1      -2.436   3.520   8.508  0.00  0.00    -0.268 OA
ATOM      9  N   UNL     1      -1.301  -0.028   7.092  0.00  0.00    -0.271 N 
ATOM     10  N   UNL     1      -1.886   1.343   8.894  0.00  0.00    -0.275 N 
ATOM     11  C   UNL     1      -1.605   0.078   8.441  0.00  0.00    +0.331 A 
ATOM     12  C   UNL     1      -1.121   1.102   6.313  0.00  0.00    +0.098 A 
ATOM     13  C   UNL     1      -1.402   2.327   6.764  0.00  0.00    +0.088 A 
ATOM     14  C   UNL     1      -1.951   2.466   8.121  0.00  0.00    +0.254 A 
ATOM     15  H   UNL     1      -2.257   1.422   9.828  0.00  0.00    +0.173 HD
ENDBRANCH   6   9
BRANCH   4  16
ATOM     16  O   UNL     1      -1.409  -4.090   5.677  0.00  0.00    -0.386 OA
ATOM     17  H   UNL     1      -2.035  -4.839   5.702  0.00  0.00    +0.210 HD
ENDBRANCH   4  16
BRANCH   5  18
ATOM     18  O   UNL     1      -3.069  -2.785   7.176  0.00  0.00    -0.385 OA
ATOM     19  H   UNL     1      -3.854  -2.274   7.480  0.00  0.00    +0.210 HD
ENDBRANCH   5  18
ENDBRANCH   1   3
BRANCH   1  21
ATOM     20  O   UNL     1      -4.042   0.187   2.672  0.00  0.00    -0.274 OA
ATOM     21  N   UNL     1      -2.910  -1.794   2.516  0.00  0.00    -0.299 N 
ATOM     22  C   UNL     1      -4.060  -1.025   2.506  0.00  0.00    +0.231 C 
ATOM     23  H   UNL     1      -3.093  -2.794   2.474  0.00  0.00    +0.150 HD
BRANCH  22  24
ATOM     24  CA  UNL     1      -5.386  -1.830   2.316  0.00  0.00    +0.143 C 
BRANCH  24  25
ATOM     25  N   UNL     1      -5.115  -2.922   1.333  0.00  0.00    -0.320 NA
ATOM     26  H1  UNL     1      -5.181  -2.529   0.392  0.00  0.00    +0.119 HD
ATOM     27  H2  UNL     1      -4.132  -3.183   1.428  0.00  0.00    +0.119 HD
ENDBRANCH  24  25
BRANCH  24  28
ATOM     28  C   UNL     1      -5.932  -2.406   3.655  0.00  0.00    +0.046 C 
ATOM     29  C   UNL     1      -6.632  -3.776   3.489  0.00  0.00    +0.012 C 
BRANCH  28  30
ATOM     30  C   UNL     1      -6.825  -1.388   4.424  0.00  0.00    +0.168 C 
BRANCH  30  32
ATOM     31  N   UNL     1      -6.616  -1.682   6.880  0.00  0.00    -0.254 NA
ATOM     32  C   UNL     1      -6.325  -0.931   5.788  0.00  0.00    +0.070 A 
ATOM     33  C   UNL     1      -5.530   0.215   5.876  0.00  0.00    +0.029 A 
ATOM     34  C   UNL     1      -5.010   0.591   7.113  0.00  0.00    +0.049 A 
ATOM     35  C   UNL     1      -6.087  -1.304   8.064  0.00  0.00    +0.156 A 
ATOM     36  C   UNL     1      -5.282  -0.190   8.222  0.00  0.00    +0.135 A 
BRANCH  36  37
ATOM     37  O   UNL     1      -4.739   0.163   9.419  0.00  0.00    -0.505 OA
ATOM     38  H   UNL     1      -5.333   0.796   9.854  0.00  0.00    +0.292 HD
ENDBRANCH  36  37
ENDBRANCH  30  32
BRANCH  30  39
ATOM     39  O   UNL     1      -7.034  -0.226   3.607  0.00  0.00    -0.385 OA
ATOM     40  H   UNL     1      -6.155   0.134   3.404  0.00  0.00    +0.210 HD
ENDBRANCH  30  39
ENDBRANCH  28  30
ENDBRANCH  24  28
ENDBRANCH  22  24
ENDBRANCH   1  21
BRANCH   1  42
ATOM     41  OXT UNL     1      -0.895  -1.152   0.713  0.00  0.00    -0.249 OA
ATOM     42  C   UNL     1      -0.600  -1.256   1.897  0.00  0.00    +0.328 C 
BRANCH  42  43
ATOM     43  O   UNL     1       0.693  -1.301   2.288  0.00  0.00    -0.479 OA
ATOM     44  H   UNL     1       1.302  -0.768   1.719  0.00  0.00    +0.295 HD
ENDBRANCH  42  43
ENDBRANCH   1  42
TORSDOF 14
ENDMDL
MODEL 4
REMARK VINA RESULT:     0.001      7.931     10.911
REMARK INTER + INTRA:          -3.568
REMARK INTER:                   0.000
REMARK INTRA:                  -3.568
REMARK UNBOUND:                -3.570
REMARK  Name = 456557
REMARK  15 active torsions:
REMARK  status: ('A' for Active; 'I' for Inactive)
REMARK    1  A    between atoms: O_2  and  C_17
REMARK    2  A    between atoms: O_3  and  C_18
REMARK    3  A    between atoms: O_4  and  C_22
REMARK    4  A    between atoms: O_7  and  C_27
REMARK    5  A    between atoms: O_10  and  C_35
REMARK    6  A    between atoms: N_11  and  C_19
REMARK    7  A    between atoms: N_12  and  CA_20
REMARK    8  A    between atoms: N_13  and  CA_21
REMARK    9  A    between atoms: C_16  and  CA_20
REMARK   10  A    between atoms: CA_20  and  C_22
REMARK   11  A    between atoms: CA_21  and  C_23
REMARK   12  A    between atoms: CA_21  and  C_24
REMARK   13  A    between atoms: C_23  and  C_27
REMARK   14  A    between atoms: C_23  and  C_28
REMARK   15  A    between atoms: C_27  and  C_30
REMARK                            x       y       z     vdW  Elec       q    Type
REMARK                         _______ _______ _______ _____ _____    ______ ____
ROOT
ATOM      1  CA  UNL     1      -2.148  -3.433   3.199  0.00  0.00    +0.213 C 
ENDROOT
BRANCH   1   3
ATOM      2  O   UNL     1      -0.627  -3.660   5.136  0.00  0.00    -0.345 OA
ATOM      3  C   UNL     1      -1.538  -2.751   4.448  0.00  0.00    +0.183 C 
ATOM      4  C   UNL     1      -0.691  -1.517   4.133  0.00  0.00    +0.178 C 
ATOM      5  C   UNL     1       0.710  -2.087   3.943  0.00  0.00    +0.195 C 
ATOM      6  C   UNL     1       0.722  -3.151   5.041  0.00  0.00    +0.255 C 
BRANCH   6   9
ATOM      7  O   UNL     1       3.479  -3.087   5.719  0.00  0.00    -0.246 OA
ATOM      8  O   UNL     1       4.258  -6.993   3.585  0.00  0.00    -0.268 OA
ATOM      9  N   UNL     1       1.664  -4.265   4.891  0.00  0.00    -0.271 N 
ATOM     10  N   UNL     1       3.839  -5.117   4.810  0.00  0.00    -0.275 N 
ATOM     11  C   UNL     1       3.007  -4.096   5.191  0.00  0.00    +0.331 A 
ATOM     12  C   UNL     1       1.190  -5.470   4.401  0.00  0.00    +0.098 A 
ATOM     13  C   UNL     1       2.011  -6.456   4.029  0.00  0.00    +0.088 A 
ATOM     14  C   UNL     1       3.461  -6.230   4.115  0.00  0.00    +0.254 A 
ATOM     15  H   UNL     1       4.831  -4.950   4.879  0.00  0.00    +0.173 HD
ENDBRANCH   6   9
BRANCH   4  16
ATOM     16  O   UNL     1      -0.597  -0.622   5.268  0.00  0.00    -0.386 OA
ATOM     17  H   UNL     1       0.340  -0.552   5.537  0.00  0.00    +0.210 HD
ENDBRANCH   4  16
BRANCH   5  18
ATOM     18  O   UNL     1       1.694  -1.073   4.149  0.00  0.00    -0.385 OA
ATOM     19  H   UNL     1       2.497  -1.380   3.669  0.00  0.00    +0.210 HD
ENDBRANCH   5  18
ENDBRANCH   1   3
BRANCH   1  21
ATOM     20  O   UNL     1      -1.194  -4.029   0.547  0.00  0.00    -0.274 OA
ATOM     21  N   UNL     1      -2.264  -2.605   1.981  0.00  0.00    -0.299 N 
ATOM     22  C   UNL     1      -1.646  -2.917   0.784  0.00  0.00    +0.231 C 
ATOM     23  H   UNL     1      -2.490  -1.617   2.074  0.00  0.00    +0.150 HD
BRANCH  22  24
ATOM     24  CA  UNL     1      -1.524  -1.726  -0.221  0.00  0.00    +0.143 C 
BRANCH  24  25
ATOM     25  N   UNL     1      -2.781  -0.925  -0.127  0.00  0.00    -0.320 NA
ATOM     26  H1  UNL     1      -2.861  -0.565   0.826  0.00  0.00    +0.119 HD
ATOM     27  H2  UNL     1      -2.657  -0.090  -0.702  0.00  0.00    +0.119 HD
ENDBRANCH  24  25
BRANCH  24  28
ATOM     28  C   UNL     1      -0.275  -0.839   0.050  0.00  0.00    +0.046 C 
ATOM     29  C   UNL     1      -0.512   0.659  -0.255  0.00  0.00    +0.012 C 
BRANCH  28  30
ATOM     30  C   UNL     1       1.006  -1.380  -0.652  0.00  0.00    +0.168 C 
BRANCH  30  32
ATOM     31  N   UNL     1       3.042  -0.887   0.680  0.00  0.00    -0.254 NA
ATOM     32  C   UNL     1       2.151  -1.817   0.251  0.00  0.00    +0.070 A 
ATOM     33  C   UNL     1       2.225  -3.150   0.664  0.00  0.00    +0.029 A 
ATOM     34  C   UNL     1       3.229  -3.534   1.551  0.00  0.00    +0.049 A 
ATOM     35  C   UNL     1       3.995  -1.283   1.550  0.00  0.00    +0.156 A 
ATOM     36  C   UNL     1       4.120  -2.581   2.012  0.00  0.00    +0.135 A 
BRANCH  36  37
ATOM     37  O   UNL     1       5.074  -2.956   2.907  0.00  0.00    -0.505 OA
ATOM     38  H   UNL     1       4.685  -2.942   3.798  0.00  0.00    +0.292 HD
ENDBRANCH  36  37
ENDBRANCH  30  32
BRANCH  30  39
ATOM     39  O   UNL     1       0.653  -2.482  -1.502  0.00  0.00    -0.385 OA
ATOM     40  H   UNL     1      -0.078  -2.949  -1.063  0.00  0.00    +0.210 HD
ENDBRANCH  30  39
ENDBRANCH  28  30
ENDBRANCH  24  28
ENDBRANCH  22  24
ENDBRANCH   1  21
BRANCH   1  42
ATOM     41  OXT UNL     1      -4.463  -4.121   2.750  0.00  0.00    -0.249 OA
ATOM     42  C   UNL     1      -3.543  -3.988   3.549  0.00  0.00    +0.328 C 
BRANCH  42  43
ATOM     43  O   UNL     1      -3.690  -4.358   4.842  0.00  0.00    -0.479 OA
ATOM     44  H   UNL     1      -3.187  -3.792   5.479  0.00  0.00    +0.295 HD
ENDBRANCH  42  43
ENDBRANCH   1  42
TORSDOF 14
ENDMDL
MODEL 5
REMARK VINA RESULT:     0.001      5.974      8.439
REMARK INTER + INTRA:          -3.568
REMARK INTER:                   0.000
REMARK INTRA:                  -3.568
REMARK UNBOUND:                -3.570
REMARK  Name = 456557
REMARK  15 active torsions:
REMARK  status: ('A' for Active; 'I' for Inactive)
REMARK    1  A    between atoms: O_2  and  C_17
REMARK    2  A    between atoms: O_3  and  C_18
REMARK    3  A    between atoms: O_4  and  C_22
REMARK    4  A    between atoms: O_7  and  C_27
REMARK    5  A    between atoms: O_10  and  C_35
REMARK    6  A    between atoms: N_11  and  C_19
REMARK    7  A    between atoms: N_12  and  CA_20
REMARK    8  A    between atoms: N_13  and  CA_21
REMARK    9  A    between atoms: C_16  and  CA_20
REMARK   10  A    between atoms: CA_20  and  C_22
REMARK   11  A    between atoms: CA_21  and  C_23
REMARK   12  A    between atoms: CA_21  and  C_24
REMARK   13  A    between atoms: C_23  and  C_27
REMARK   14  A    between atoms: C_23  and  C_28
REMARK   15  A    between atoms: C_27  and  C_30
REMARK                            x       y       z     vdW  Elec       q    Type
REMARK                         _______ _______ _______ _____ _____    ______ ____
ROOT
ATOM      1  CA  UNL     1       0.038   1.789  -0.715  0.00  0.00    +0.213 C 
ENDROOT
BRANCH   1   3
ATOM      2  O   UNL     1       0.611   2.360   1.623  0.00  0.00    -0.345 OA
ATOM      3  C   UNL     1       1.072   2.434   0.241  0.00  0.00    +0.183 C 
ATOM      4  C   UNL     1       2.433   1.738   0.247  0.00  0.00    +0.178 C 
ATOM      5  C   UNL     1       2.293   0.691   1.347  0.00  0.00    +0.195 C 
ATOM      6  C   UNL     1       1.482   1.485   2.373  0.00  0.00    +0.255 C 
BRANCH   6   9
ATOM      7  O   UNL     1       2.492   0.321   4.759  0.00  0.00    -0.246 OA
ATOM      8  O   UNL     1      -1.295  -2.064   5.388  0.00  0.00    -0.268 OA
ATOM      9  N   UNL     1       0.698   0.721   3.349  0.00  0.00    -0.271 N 
ATOM     10  N   UNL     1       0.544  -0.734   5.172  0.00  0.00    -0.275 N 
ATOM     11  C   UNL     1       1.314   0.138   4.446  0.00  0.00    +0.331 A 
ATOM     12  C   UNL     1      -0.659   0.558   3.125  0.00  0.00    +0.098 A 
ATOM     13  C   UNL     1      -1.397  -0.298   3.837  0.00  0.00    +0.088 A 
ATOM     14  C   UNL     1      -0.731  -1.112   4.864  0.00  0.00    +0.254 A 
ATOM     15  H   UNL     1       1.013  -1.282   5.877  0.00  0.00    +0.173 HD
ENDBRANCH   6   9
BRANCH   4  16
ATOM     16  O   UNL     1       3.492   2.624   0.687  0.00  0.00    -0.386 OA
ATOM     17  H   UNL     1       3.658   2.470   1.637  0.00  0.00    +0.210 HD
ENDBRANCH   4  16
BRANCH   5  18
ATOM     18  O   UNL     1       3.576   0.307   1.840  0.00  0.00    -0.385 OA
ATOM     19  H   UNL     1       3.982   1.132   2.194  0.00  0.00    +0.210 HD
ENDBRANCH   5  18
ENDBRANCH   1   3
BRANCH   1  21
ATOM     20  O   UNL     1      -0.676  -0.917  -1.398  0.00  0.00    -0.274 OA
ATOM     21  N   UNL     1       0.575   0.953  -1.807  0.00  0.00    -0.299 N 
ATOM     22  C   UNL     1       0.270  -0.387  -1.965  0.00  0.00    +0.231 C 
ATOM     23  H   UNL     1       1.449   1.223  -2.253  0.00  0.00    +0.150 HD
BRANCH  22  24
ATOM     24  CA  UNL     1       1.255  -1.181  -2.882  0.00  0.00    +0.143 C 
BRANCH  24  25
ATOM     25  N   UNL     1       1.640  -0.286  -4.013  0.00  0.00    -0.320 NA
ATOM     26  H1  UNL     1       2.660  -0.250  -4.061  0.00  0.00    +0.119 HD
ATOM     27  H2  UNL     1       1.364  -0.751  -4.880  0.00  0.00    +0.119 HD
ENDBRANCH  24  25
BRANCH  24  28
ATOM     28  C   UNL     1       2.512  -1.685  -2.114  0.00  0.00    +0.046 C 
ATOM     29  C   UNL     1       3.794  -1.689  -2.981  0.00  0.00    +0.012 C 
BRANCH  28  30
ATOM     30  C   UNL     1       2.277  -3.058  -1.418  0.00  0.00    +0.168 C 
BRANCH  30  32
ATOM     31  N   UNL     1       3.580  -3.237   0.687  0.00  0.00    -0.254 NA
ATOM     32  C   UNL     1       2.366  -3.080   0.102  0.00  0.00    +0.070 A 
ATOM     33  C   UNL     1       1.208  -2.879   0.857  0.00  0.00    +0.029 A 
ATOM     34  C   UNL     1       1.301  -2.824   2.247  0.00  0.00    +0.049 A 
ATOM     35  C   UNL     1       3.645  -3.164   2.034  0.00  0.00    +0.156 A 
ATOM     36  C   UNL     1       2.542  -2.955   2.843  0.00  0.00    +0.135 A 
BRANCH  36  37
ATOM     37  O   UNL     1       2.630  -2.861   4.198  0.00  0.00    -0.505 OA
ATOM     38  H   UNL     1       2.279  -3.679   4.588  0.00  0.00    +0.292 HD
ENDBRANCH  36  37
ENDBRANCH  30  32
BRANCH  30  39
ATOM     39  O   UNL     1       0.994  -3.574  -1.804  0.00  0.00    -0.385 OA
ATOM     40  H   UNL     1       1.148  -4.463  -2.164  0.00  0.00    +0.210 HD
ENDBRANCH  30  39
ENDBRANCH  28  30
ENDBRANCH  24  28
ENDBRANCH  22  24
ENDBRANCH   1  21
BRANCH   1  42
ATOM     41  OXT UNL     1      -1.391   2.818  -2.426  0.00  0.00    -0.249 OA
ATOM     42  C   UNL     1      -0.848   2.890  -1.330  0.00  0.00    +0.328 C 
BRANCH  42  43
ATOM     43  O   UNL     1      -1.014   3.978  -0.545  0.00  0.00    -0.479 OA
ATOM     44  H   UNL     1      -0.395   4.721  -0.753  0.00  0.00    +0.295 HD
ENDBRANCH  42  43
ENDBRANCH   1  42
TORSDOF 14
ENDMDL
MODEL 6
REMARK VINA RESULT:     0.002      8.710     11.478
REMARK INTER + INTRA:          -3.567
REMARK INTER:                   0.000
REMARK INTRA:                  -3.567
REMARK UNBOUND:                -3.570
REMARK  Name = 456557
REMARK  15 active torsions:
REMARK  status: ('A' for Active; 'I' for Inactive)
REMARK    1  A    between atoms: O_2  and  C_17
REMARK    2  A    between atoms: O_3  and  C_18
REMARK    3  A    between atoms: O_4  and  C_22
REMARK    4  A    between atoms: O_7  and  C_27
REMARK    5  A    between atoms: O_10  and  C_35
REMARK    6  A    between atoms: N_11  and  C_19
REMARK    7  A    between atoms: N_12  and  CA_20
REMARK    8  A    between atoms: N_13  and  CA_21
REMARK    9  A    between atoms: C_16  and  CA_20
REMARK   10  A    between atoms: CA_20  and  C_22
REMARK   11  A    between atoms: CA_21  and  C_23
REMARK   12  A    between atoms: CA_21  and  C_24
REMARK   13  A    between atoms: C_23  and  C_27
REMARK   14  A    between atoms: C_23  and  C_28
REMARK   15  A    between atoms: C_27  and  C_30
REMARK                            x       y       z     vdW  Elec       q    Type
REMARK                         _______ _______ _______ _____ _____    ______ ____
ROOT
ATOM      1  CA  UNL     1      -0.345   7.377   1.636  0.00  0.00    +0.213 C 
ENDROOT
BRANCH   1   3
ATOM      2  O   UNL     1      -0.314   5.950   3.655  0.00  0.00    -0.345 OA
ATOM      3  C   UNL     1       0.431   6.317   2.457  0.00  0.00    +0.183 C 
ATOM      4  C   UNL     1       0.653   4.998   1.716  0.00  0.00    +0.178 C 
ATOM      5  C   UNL     1      -0.573   4.171   2.087  0.00  0.00    +0.195 C 
ATOM      6  C   UNL     1      -0.735   4.571   3.555  0.00  0.00    +0.255 C 
BRANCH   6   9
ATOM      7  O   UNL     1      -1.808   2.150   4.580  0.00  0.00    -0.246 OA
ATOM      8  O   UNL     1      -5.952   3.927   4.878  0.00  0.00    -0.268 OA
ATOM      9  N   UNL     1      -2.064   4.413   4.154  0.00  0.00    -0.271 N 
ATOM     10  N   UNL     1      -3.836   3.081   4.896  0.00  0.00    -0.275 N 
ATOM     11  C   UNL     1      -2.510   3.163   4.558  0.00  0.00    +0.331 A 
ATOM     12  C   UNL     1      -2.878   5.528   4.264  0.00  0.00    +0.098 A 
ATOM     13  C   UNL     1      -4.169   5.434   4.589  0.00  0.00    +0.088 A 
ATOM     14  C   UNL     1      -4.743   4.097   4.802  0.00  0.00    +0.254 A 
ATOM     15  H   UNL     1      -4.215   2.158   5.043  0.00  0.00    +0.173 HD
ENDBRANCH   6   9
BRANCH   4  16
ATOM     16  O   UNL     1       1.789   4.268   2.242  0.00  0.00    -0.386 OA
ATOM     17  H   UNL     1       1.875   4.462   3.195  0.00  0.00    +0.210 HD
ENDBRANCH   4  16
BRANCH   5  18
ATOM     18  O   UNL     1      -0.305   2.778   1.924  0.00  0.00    -0.385 OA
ATOM     19  H   UNL     1      -1.186   2.347   1.834  0.00  0.00    +0.210 HD
ENDBRANCH   5  18
ENDBRANCH   1   3
BRANCH   1  21
ATOM     20  O   UNL     1      -2.611   7.306  -0.141  0.00  0.00    -0.274 OA
ATOM     21  N   UNL     1      -0.347   7.210   0.169  0.00  0.00    -0.299 N 
ATOM     22  C   UNL     1      -1.499   7.045  -0.579  0.00  0.00    +0.231 C 
ATOM     23  H   UNL     1       0.487   6.850  -0.289  0.00  0.00    +0.150 HD
BRANCH  22  24
ATOM     24  CA  UNL     1      -1.274   6.453  -2.008  0.00  0.00    +0.143 C 
BRANCH  24  25
ATOM     25  N   UNL     1      -0.018   7.050  -2.552  0.00  0.00    -0.320 NA
ATOM     26  H1  UNL     1       0.762   6.746  -1.965  0.00  0.00    +0.119 HD
ATOM     27  H2  UNL     1       0.163   6.612  -3.457  0.00  0.00    +0.119 HD
ENDBRANCH  24  25
BRANCH  24  28
ATOM     28  C   UNL     1      -1.199   4.898  -2.006  0.00  0.00    +0.046 C 
ATOM     29  C   UNL     1      -0.218   4.334  -3.061  0.00  0.00    +0.012 C 
BRANCH  28  30
ATOM     30  C   UNL     1      -2.604   4.232  -2.104  0.00  0.00    +0.168 C 
BRANCH  30  32
ATOM     31  N   UNL     1      -2.667   2.079  -0.870  0.00  0.00    -0.254 NA
ATOM     32  C   UNL     1      -3.044   3.383  -0.920  0.00  0.00    +0.070 A 
ATOM     33  C   UNL     1      -3.772   3.976   0.114  0.00  0.00    +0.029 A 
ATOM     34  C   UNL     1      -4.110   3.218   1.234  0.00  0.00    +0.049 A 
ATOM     35  C   UNL     1      -2.995   1.371   0.232  0.00  0.00    +0.156 A 
ATOM     36  C   UNL     1      -3.702   1.897   1.299  0.00  0.00    +0.135 A 
BRANCH  36  37
ATOM     37  O   UNL     1      -4.002   1.174   2.412  0.00  0.00    -0.505 OA
ATOM     38  H   UNL     1      -3.693   1.664   3.192  0.00  0.00    +0.292 HD
ENDBRANCH  36  37
ENDBRANCH  30  32
BRANCH  30  39
ATOM     39  O   UNL     1      -3.596   5.245  -2.328  0.00  0.00    -0.385 OA
ATOM     40  H   UNL     1      -3.481   5.908  -1.627  0.00  0.00    +0.210 HD
ENDBRANCH  30  39
ENDBRANCH  28  30
ENDBRANCH  24  28
ENDBRANCH  22  24
ENDBRANCH   1  21
BRANCH   1  42
ATOM     41  OXT UNL     1       0.194   9.733   1.197  0.00  0.00    -0.249 OA
ATOM     42  C   UNL     1       0.200   8.781   1.969  0.00  0.00    +0.328 C 
BRANCH  42  43
ATOM     43  O   UNL     1       0.684   8.910   3.224  0.00  0.00    -0.479 OA
ATOM     44  H   UNL     1       1.335   9.648   3.328  0.00  0.00    +0.295 HD
ENDBRANCH  42  43
ENDBRANCH   1  42
TORSDOF 14
ENDMDL
MODEL 7
REMARK VINA RESULT:     0.002      8.113     11.073
REMARK INTER + INTRA:          -3.566
REMARK INTER:                   0.000
REMARK INTRA:                  -3.566
REMARK UNBOUND:                -3.570
REMARK  Name = 456557
REMARK  15 active torsions:
REMARK  status: ('A' for Active; 'I' for Inactive)
REMARK    1  A    between atoms: O_2  and  C_17
REMARK    2  A    between atoms: O_3  and  C_18
REMARK    3  A    between atoms: O_4  and  C_22
REMARK    4  A    between atoms: O_7  and  C_27
REMARK    5  A    between atoms: O_10  and  C_35
REMARK    6  A    between atoms: N_11  and  C_19
REMARK    7  A    between atoms: N_12  and  CA_20
REMARK    8  A    between atoms: N_13  and  CA_21
REMARK    9  A    between atoms: C_16  and  CA_20
REMARK   10  A    between atoms: CA_20  and  C_22
REMARK   11  A    between atoms: CA_21  and  C_23
REMARK   12  A    between atoms: CA_21  and  C_24
REMARK   13  A    between atoms: C_23  and  C_27
REMARK   14  A    between atoms: C_23  and  C_28
REMARK   15  A    between atoms: C_27  and  C_30
REMARK                            x       y       z     vdW  Elec       q    Type
REMARK                         _______ _______ _______ _____ _____    ______ ____
ROOT
ATOM      1  CA  UNL     1       2.302   3.713   1.172  0.00  0.00    +0.213 C 
ENDROOT
BRANCH   1   3
ATOM      2  O   UNL     1       2.580   3.462   3.617  0.00  0.00    -0.345 OA
ATOM      3  C   UNL     1       2.812   2.819   2.329  0.00  0.00    +0.183 C 
ATOM      4  C   UNL     1       2.099   1.470   2.432  0.00  0.00    +0.178 C 
ATOM      5  C   UNL     1       0.931   1.757   3.369  0.00  0.00    +0.195 C 
ATOM      6  C   UNL     1       1.607   2.699   4.366  0.00  0.00    +0.255 C 
BRANCH   6   9
ATOM      7  O   UNL     1       0.151   2.019   6.708  0.00  0.00    -0.246 OA
ATOM      8  O   UNL     1      -2.233   5.853   6.531  0.00  0.00    -0.268 OA
ATOM      9  N   UNL     1       0.745   3.607   5.129  0.00  0.00    -0.271 N 
ATOM     10  N   UNL     1      -0.915   4.004   6.726  0.00  0.00    -0.275 N 
ATOM     11  C   UNL     1       0.025   3.144   6.220  0.00  0.00    +0.331 A 
ATOM     12  C   UNL     1       0.630   4.921   4.707  0.00  0.00    +0.098 A 
ATOM     13  C   UNL     1      -0.293   5.747   5.205  0.00  0.00    +0.088 A 
ATOM     14  C   UNL     1      -1.234   5.226   6.207  0.00  0.00    +0.254 A 
ATOM     15  H   UNL     1      -1.551   3.633   7.416  0.00  0.00    +0.173 HD
ENDBRANCH   6   9
BRANCH   4  16
ATOM     16  O   UNL     1       2.910   0.481   3.114  0.00  0.00    -0.386 OA
ATOM     17  H   UNL     1       2.789   0.583   4.078  0.00  0.00    +0.210 HD
ENDBRANCH   4  16
BRANCH   5  18
ATOM     18  O   UNL     1       0.470   0.551   3.979  0.00  0.00    -0.385 OA
ATOM     19  H   UNL     1       0.120   0.816   4.861  0.00  0.00    +0.210 HD
ENDBRANCH   5  18
ENDBRANCH   1   3
BRANCH   1  21
ATOM     20  O   UNL     1      -0.292   4.325   0.079  0.00  0.00    -0.274 OA
ATOM     21  N   UNL     1       1.595   3.034   0.069  0.00  0.00    -0.299 N 
ATOM     22  C   UNL     1       0.288   3.313  -0.288  0.00  0.00    +0.231 C 
ATOM     23  H   UNL     1       1.903   2.108  -0.221  0.00  0.00    +0.150 HD
BRANCH  22  24
ATOM     24  CA  UNL     1      -0.405   2.212  -1.155  0.00  0.00    +0.143 C 
BRANCH  24  25
ATOM     25  N   UNL     1       0.614   1.679  -2.108  0.00  0.00    -0.320 NA
ATOM     26  H1  UNL     1       1.268   2.432  -2.333  0.00  0.00    +0.119 HD
ATOM     27  H2  UNL     1       1.181   0.997  -1.601  0.00  0.00    +0.119 HD
ENDBRANCH  24  25
BRANCH  24  28
ATOM     28  C   UNL     1      -1.016   1.069  -0.293  0.00  0.00    +0.046 C 
ATOM     29  C   UNL     1      -0.936  -0.318  -0.975  0.00  0.00    +0.012 C 
BRANCH  28  30
ATOM     30  C   UNL     1      -2.459   1.394   0.195  0.00  0.00    +0.168 C 
BRANCH  30  32
ATOM     31  N   UNL     1      -2.909   0.387   2.418  0.00  0.00    -0.254 NA
ATOM     32  C   UNL     1      -2.664   1.512   1.699  0.00  0.00    +0.070 A 
ATOM     33  C   UNL     1      -2.538   2.761   2.311  0.00  0.00    +0.029 A 
ATOM     34  C   UNL     1      -2.651   2.857   3.696  0.00  0.00    +0.049 A 
ATOM     35  C   UNL     1      -2.999   0.506   3.761  0.00  0.00    +0.156 A 
ATOM     36  C   UNL     1      -2.871   1.708   4.434  0.00  0.00    +0.135 A 
BRANCH  36  37
ATOM     37  O   UNL     1      -2.942   1.804   5.790  0.00  0.00    -0.505 OA
ATOM     38  H   UNL     1      -3.108   2.732   6.026  0.00  0.00    +0.292 HD
ENDBRANCH  36  37
ENDBRANCH  30  32
BRANCH  30  39
ATOM     39  O   UNL     1      -2.906   2.613  -0.419  0.00  0.00    -0.385 OA
ATOM     40  H   UNL     1      -3.339   3.134   0.278  0.00  0.00    +0.210 HD
ENDBRANCH  30  39
ENDBRANCH  28  30
ENDBRANCH  24  28
ENDBRANCH  22  24
ENDBRANCH   1  21
BRANCH   1  42
ATOM     41  OXT UNL     1       3.559   4.886  -0.582  0.00  0.00    -0.249 OA
ATOM     42  C   UNL     1       3.483   4.510   0.582  0.00  0.00    +0.328 C 
BRANCH  42  43
ATOM     43  O   UNL     1       4.461   4.799   1.469  0.00  0.00    -0.479 OA
ATOM     44  H   UNL     1       4.609   4.094   2.146  0.00  0.00    +0.295 HD
ENDBRANCH  42  43
ENDBRANCH   1  42
TORSDOF 14
ENDMDL
MODEL 8
REMARK VINA RESULT:     0.003      8.170     11.082
REMARK INTER + INTRA:          -3.566
REMARK INTER:                   0.000
REMARK INTRA:                  -3.566
REMARK UNBOUND:                -3.570
REMARK  Name = 456557
REMARK  15 active torsions:
REMARK  status: ('A' for Active; 'I' for Inactive)
REMARK    1  A    between atoms: O_2  and  C_17
REMARK    2  A    between atoms: O_3  and  C_18
REMARK    3  A    between atoms: O_4  and  C_22
REMARK    4  A    between atoms: O_7  and  C_27
REMARK    5  A    between atoms: O_10  and  C_35
REMARK    6  A    between atoms: N_11  and  C_19
REMARK    7  A    between atoms: N_12  and  CA_20
REMARK    8  A    between atoms: N_13  and  CA_21
REMARK    9  A    between atoms: C_16  and  CA_20
REMARK   10  A    between atoms: CA_20  and  C_22
REMARK   11  A    between atoms: CA_21  and  C_23
REMARK   12  A    between atoms: CA_21  and  C_24
REMARK   13  A    between atoms: C_23  and  C_27
REMARK   14  A    between atoms: C_23  and  C_28
REMARK   15  A    between atoms: C_27  and  C_30
REMARK                            x       y       z     vdW  Elec       q    Type
REMARK                         _______ _______ _______ _____ _____    ______ ____
ROOT
ATOM      1  CA  UNL     1      -1.009  -3.874  -0.987  0.00  0.00    +0.213 C 
ENDROOT
BRANCH   1   3
ATOM      2  O   UNL     1       0.082  -1.702  -0.529  0.00  0.00    -0.345 OA
ATOM      3  C   UNL     1       0.135  -3.132  -0.252  0.00  0.00    +0.183 C 
ATOM      4  C   UNL     1       0.064  -3.237   1.272  0.00  0.00    +0.178 C 
ATOM      5  C   UNL     1      -0.775  -2.028   1.673  0.00  0.00    +0.195 C 
ATOM      6  C   UNL     1      -0.241  -0.989   0.685  0.00  0.00    +0.255 C 
BRANCH   6   9
ATOM      7  O   UNL     1      -0.527   1.348   2.274  0.00  0.00    -0.246 OA
ATOM      8  O   UNL     1      -4.131   2.707  -0.089  0.00  0.00    -0.268 OA
ATOM      9  N   UNL     1      -1.107   0.154   0.375  0.00  0.00    -0.271 N 
ATOM     10  N   UNL     1      -2.213   2.119   0.992  0.00  0.00    -0.275 N 
ATOM     11  C   UNL     1      -1.219   1.213   1.263  0.00  0.00    +0.331 A 
ATOM     12  C   UNL     1      -1.841   0.128  -0.798  0.00  0.00    +0.098 A 
ATOM     13  C   UNL     1      -2.809   1.013  -1.048  0.00  0.00    +0.088 A 
ATOM     14  C   UNL     1      -3.120   2.021  -0.023  0.00  0.00    +0.254 A 
ATOM     15  H   UNL     1      -2.411   2.807   1.702  0.00  0.00    +0.173 HD
ENDBRANCH   6   9
BRANCH   4  16
ATOM     16  O   UNL     1       1.360  -3.031   1.889  0.00  0.00    -0.386 OA
ATOM     17  H   UNL     1       2.024  -2.889   1.187  0.00  0.00    +0.210 HD
ENDBRANCH   4  16
BRANCH   5  18
ATOM     18  O   UNL     1      -0.524  -1.673   3.032  0.00  0.00    -0.385 OA
ATOM     19  H   UNL     1      -0.663  -2.497   3.552  0.00  0.00    +0.210 HD
ENDBRANCH   5  18
ENDBRANCH   1   3
BRANCH   1  21
ATOM     20  O   UNL     1      -3.838  -4.183  -0.545  0.00  0.00    -0.274 OA
ATOM     21  N   UNL     1      -1.702  -4.938  -0.234  0.00  0.00    -0.299 N 
ATOM     22  C   UNL     1      -3.057  -4.919   0.042  0.00  0.00    +0.231 C 
ATOM     23  H   UNL     1      -1.168  -5.519   0.407  0.00  0.00    +0.150 HD
BRANCH  22  24
ATOM     24  CA  UNL     1      -3.505  -5.874   1.196  0.00  0.00    +0.143 C 
BRANCH  24  25
ATOM     25  N   UNL     1      -2.706  -7.130   1.078  0.00  0.00    -0.320 NA
ATOM     26  H1  UNL     1      -1.743  -6.925   1.349  0.00  0.00    +0.119 HD
ATOM     27  H2  UNL     1      -3.039  -7.774   1.798  0.00  0.00    +0.119 HD
ENDBRANCH  24  25
BRANCH  24  28
ATOM     28  C   UNL     1      -3.333  -5.232   2.604  0.00  0.00    +0.046 C 
ATOM     29  C   UNL     1      -2.939  -6.255   3.696  0.00  0.00    +0.012 C 
BRANCH  28  30
ATOM     30  C   UNL     1      -4.564  -4.377   3.026  0.00  0.00    +0.168 C 
BRANCH  30  32
ATOM     31  N   UNL     1      -3.885  -2.455   4.442  0.00  0.00    -0.254 NA
ATOM     32  C   UNL     1      -4.325  -2.888   3.233  0.00  0.00    +0.070 A 
ATOM     33  C   UNL     1      -4.507  -2.010   2.161  0.00  0.00    +0.029 A 
ATOM     34  C   UNL     1      -4.217  -0.657   2.330  0.00  0.00    +0.049 A 
ATOM     35  C   UNL     1      -3.596  -1.142   4.574  0.00  0.00    +0.156 A 
ATOM     36  C   UNL     1      -3.740  -0.220   3.553  0.00  0.00    +0.135 A 
BRANCH  36  37
ATOM     37  O   UNL     1      -3.422   1.096   3.698  0.00  0.00    -0.505 OA
ATOM     38  H   UNL     1      -2.791   1.182   4.432  0.00  0.00    +0.292 HD
ENDBRANCH  36  37
ENDBRANCH  30  32
BRANCH  30  39
ATOM     39  O   UNL     1      -5.609  -4.536   2.055  0.00  0.00    -0.385 OA
ATOM     40  H   UNL     1      -5.470  -5.402   1.634  0.00  0.00    +0.210 HD
ENDBRANCH  30  39
ENDBRANCH  28  30
ENDBRANCH  24  28
ENDBRANCH  22  24
ENDBRANCH   1  21
BRANCH   1  42
ATOM     41  OXT UNL     1      -0.922  -5.471  -2.851  0.00  0.00    -0.249 OA
ATOM     42  C   UNL     1      -0.468  -4.474  -2.301  0.00  0.00    +0.328 C 
BRANCH  42  43
ATOM     43  O   UNL     1       0.566  -3.793  -2.843  0.00  0.00    -0.479 OA
ATOM     44  H   UNL     1       0.336  -3.312  -3.676  0.00  0.00    +0.295 HD
ENDBRANCH  42  43
ENDBRANCH   1  42
TORSDOF 14
ENDMDL
MODEL 9
REMARK VINA RESULT:     0.003      5.081      6.968
REMARK INTER + INTRA:          -3.565
REMARK INTER:                   0.000
REMARK INTRA:                  -3.565
REMARK UNBOUND:                -3.570
REMARK  Name = 456557
REMARK  15 active torsions:
REMARK  status: ('A' for Active; 'I' for Inactive)
REMARK    1  A    between atoms: O_2  and  C_17
REMARK    2  A    between atoms: O_3  and  C_18
REMARK    3  A    between atoms: O_4  and  C_22
REMARK    4  A    between atoms: O_7  and  C_27
REMARK    5  A    between atoms: O_10  and  C_35
REMARK    6  A    between atoms: N_11  and  C_19
REMARK    7  A    between atoms: N_12  and  CA_20
REMARK    8  A    between atoms: N_13  and  CA_21
REMARK    9  A    between atoms: C_16  and  CA_20
REMARK   10  A    between atoms: CA_20  and  C_22
REMARK   11  A    between atoms: CA_21  and  C_23
REMARK   12  A    between atoms: CA_21  and  C_24
REMARK   13  A    between atoms: C_23  and  C_27
REMARK   14  A    between atoms: C_23  and  C_28
REMARK   15  A    between atoms: C_27  and  C_30
REMARK                            x       y       z     vdW  Elec       q    Type
REMARK                         _______ _______ _______ _____ _____    ______ ____
ROOT
ATOM      1  CA  UNL     1      -2.971   0.269  -0.765  0.00  0.00    +0.213 C 
ENDROOT
BRANCH   1   3
ATOM      2  O   UNL     1      -3.125  -2.091  -1.486  0.00  0.00    -0.345 OA
ATOM      3  C   UNL     1      -2.960  -1.217  -0.331  0.00  0.00    +0.183 C 
ATOM      4  C   UNL     1      -1.648  -1.667   0.313  0.00  0.00    +0.178 C 
ATOM      5  C   UNL     1      -0.822  -2.161  -0.870  0.00  0.00    +0.195 C 
ATOM      6  C   UNL     1      -1.913  -2.850  -1.691  0.00  0.00    +0.255 C 
BRANCH   6   9
ATOM      7  O   UNL     1      -0.362  -4.914  -2.875  0.00  0.00    -0.246 OA
ATOM      8  O   UNL     1      -0.342  -2.821  -6.880  0.00  0.00    -0.268 OA
ATOM      9  N   UNL     1      -1.670  -3.019  -3.128  0.00  0.00    -0.271 N 
ATOM     10  N   UNL     1      -0.496  -3.965  -4.915  0.00  0.00    -0.275 N 
ATOM     11  C   UNL     1      -0.836  -4.027  -3.587  0.00  0.00    +0.331 A 
ATOM     12  C   UNL     1      -2.254  -2.123  -4.007  0.00  0.00    +0.098 A 
ATOM     13  C   UNL     1      -1.912  -2.070  -5.297  0.00  0.00    +0.088 A 
ATOM     14  C   UNL     1      -0.856  -2.972  -5.780  0.00  0.00    +0.254 A 
ATOM     15  H   UNL     1       0.226  -4.593  -5.232  0.00  0.00    +0.173 HD
ENDBRANCH   6   9
BRANCH   4  16
ATOM     16  O   UNL     1      -1.833  -2.822   1.168  0.00  0.00    -0.386 OA
ATOM     17  H   UNL     1      -2.333  -3.502   0.676  0.00  0.00    +0.210 HD
ENDBRANCH   4  16
BRANCH   5  18
ATOM     18  O   UNL     1       0.189  -3.068  -0.430  0.00  0.00    -0.385 OA
ATOM     19  H   UNL     1      -0.003  -3.921  -0.884  0.00  0.00    +0.210 HD
ENDBRANCH   5  18
ENDBRANCH   1   3
BRANCH   1  21
ATOM     20  O   UNL     1      -1.065   2.032  -2.012  0.00  0.00    -0.274 OA
ATOM     21  N   UNL     1      -1.990   1.159  -0.113  0.00  0.00    -0.299 N 
ATOM     22  C   UNL     1      -1.019   1.862  -0.802  0.00  0.00    +0.231 C 
ATOM     23  H   UNL     1      -1.761   1.009   0.867  0.00  0.00    +0.150 HD
BRANCH  22  24
ATOM     24  CA  UNL     1       0.167   2.377   0.077  0.00  0.00    +0.143 C 
BRANCH  24  25
ATOM     25  N   UNL     1      -0.401   2.824   1.384  0.00  0.00    -0.320 NA
ATOM     26  H1  UNL     1       0.248   3.491   1.804  0.00  0.00    +0.119 HD
ATOM     27  H2  UNL     1      -1.236   3.378   1.183  0.00  0.00    +0.119 HD
ENDBRANCH  24  25
BRANCH  24  28
ATOM     28  C   UNL     1       1.269   1.299   0.286  0.00  0.00    +0.046 C 
ATOM     29  C   UNL     1       1.944   1.378   1.676  0.00  0.00    +0.012 C 
BRANCH  28  30
ATOM     30  C   UNL     1       2.316   1.282  -0.868  0.00  0.00    +0.168 C 
BRANCH  30  32
ATOM     31  N   UNL     1       3.182  -1.010  -1.263  0.00  0.00    -0.254 NA
ATOM     32  C   UNL     1       2.399   0.010  -1.700  0.00  0.00    +0.070 A 
ATOM     33  C   UNL     1       1.626  -0.103  -2.858  0.00  0.00    +0.029 A 
ATOM     34  C   UNL     1       1.645  -1.296  -3.578  0.00  0.00    +0.049 A 
ATOM     35  C   UNL     1       3.170  -2.160  -1.971  0.00  0.00    +0.156 A 
ATOM     36  C   UNL     1       2.420  -2.346  -3.118  0.00  0.00    +0.135 A 
BRANCH  36  37
ATOM     37  O   UNL     1       2.403  -3.521  -3.805  0.00  0.00    -0.505 OA
ATOM     38  H   UNL     1       1.484  -3.728  -4.041  0.00  0.00    +0.292 HD
ENDBRANCH  36  37
ENDBRANCH  30  32
BRANCH  30  39
ATOM     39  O   UNL     1       2.066   2.385  -1.753  0.00  0.00    -0.385 OA
ATOM     40  H   UNL     1       1.587   2.025  -2.518  0.00  0.00    +0.210 HD
ENDBRANCH  30  39
ENDBRANCH  28  30
ENDBRANCH  24  28
ENDBRANCH  22  24
ENDBRANCH   1  21
BRANCH   1  42
ATOM     41  OXT UNL     1      -4.621   2.033  -0.320  0.00  0.00    -0.249 OA
ATOM     42  C   UNL     1      -4.382   0.854  -0.553  0.00  0.00    +0.328 C 
BRANCH  42  43
ATOM     43  O   UNL     1      -5.384  -0.047  -0.665  0.00  0.00    -0.479 OA
ATOM     44  H   UNL     1      -6.263   0.292  -0.364  0.00  0.00    +0.295 HD
ENDBRANCH  42  43
ENDBRANCH   1  42
TORSDOF 14
ENDMDL
