MODEL 1
REMARK VINA RESULT:     0.000      0.000      0.000
REMARK INTER + INTRA:          -3.636
REMARK INTER:                   0.000
REMARK INTRA:                  -3.636
REMARK UNBOUND:                -3.636
REMARK  Name = 456557
REMARK  15 active torsions:
REMARK  status: ('A' for Active; 'I' for Inactive)
REMARK    1  A    between atoms: O_2  and  C_17
REMARK    2  A    between atoms: O_3  and  C_18
REMARK    3  A    between atoms: O_4  and  C_22
REMARK    4  A    between atoms: O_7  and  C_27
REMARK    5  A    between atoms: O_10  and  C_35
REMARK    6  A    between atoms: N_11  and  C_19
REMARK    7  A    between atoms: N_12  and  CA_20
REMARK    8  A    between atoms: N_13  and  CA_21
REMARK    9  A    between atoms: C_16  and  CA_20
REMARK   10  A    between atoms: CA_20  and  C_22
REMARK   11  A    between atoms: CA_21  and  C_23
REMARK   12  A    between atoms: CA_21  and  C_24
REMARK   13  A    between atoms: C_23  and  C_27
REMARK   14  A    between atoms: C_23  and  C_28
REMARK   15  A    between atoms: C_27  and  C_30
REMARK                            x       y       z     vdW  Elec       q    Type
REMARK                         _______ _______ _______ _____ _____    ______ ____
ROOT
ATOM      1  CA  UNL     1      -6.783   1.914   4.774  0.00  0.00    +0.213 C 
ENDROOT
BRANCH   1   3
ATOM      2  O   UNL     1      -5.605   3.231   6.498  0.00  0.00    -0.345 OA
ATOM      3  C   UNL     1      -6.646   3.285   5.486  0.00  0.00    +0.183 C 
ATOM      4  C   UNL     1      -6.250   4.449   4.567  0.00  0.00    +0.178 C 
ATOM      5  C   UNL     1      -4.728   4.470   4.654  0.00  0.00    +0.195 C 
ATOM      6  C   UNL     1      -4.554   4.149   6.143  0.00  0.00    +0.255 C 
BRANCH   6   9
ATOM      7  O   UNL     1      -2.195   5.596   6.565  0.00  0.00    -0.246 OA
ATOM      8  O   UNL     1       0.337   1.936   6.723  0.00  0.00    -0.268 OA
ATOM      9  N   UNL     1      -3.288   3.557   6.566  0.00  0.00    -0.271 N 
ATOM     10  N   UNL     1      -1.010   3.739   7.057  0.00  0.00    -0.275 N 
ATOM     11  C   UNL     1      -2.184   4.376   6.750  0.00  0.00    +0.331 A 
ATOM     12  C   UNL     1      -3.170   2.180   6.572  0.00  0.00    +0.098 A 
ATOM     13  C   UNL     1      -1.985   1.576   6.695  0.00  0.00    +0.088 A 
ATOM     14  C   UNL     1      -0.787   2.413   6.838  0.00  0.00    +0.254 A 
ATOM     15  H   UNL     1      -0.181   4.312   7.096  0.00  0.00    +0.173 HD
ENDBRANCH   6   9
BRANCH   4  16
ATOM     16  O   UNL     1      -6.679   5.724   5.107  0.00  0.00    -0.386 OA
ATOM     17  H   UNL     1      -7.621   5.852   4.887  0.00  0.00    +0.210 HD
ENDBRANCH   4  16
BRANCH   5  18
ATOM     18  O   UNL     1      -4.216   5.757   4.294  0.00  0.00    -0.385 OA
ATOM     19  H   UNL     1      -4.846   6.101   3.618  0.00  0.00    +0.210 HD
ENDBRANCH   5  18
ENDBRANCH   1   3
BRANCH   1  21
ATOM     20  O   UNL     1      -5.162   0.587   2.789  0.00  0.00    -0.274 OA
ATOM     21  N   UNL     1      -6.936   1.915   3.308  0.00  0.00    -0.299 N 
ATOM     22  C   UNL     1      -6.016   1.390   2.433  0.00  0.00    +0.231 C 
ATOM     23  H   UNL     1      -7.485   2.672   2.893  0.00  0.00    +0.150 HD
BRANCH  22  24
ATOM     24  CA  UNL     1      -6.123   1.875   0.964  0.00  0.00    +0.143 C 
BRANCH  24  25
ATOM     25  N   UNL     1      -7.568   2.044   0.635  0.00  0.00    -0.320 NA
ATOM     26  H1  UNL     1      -8.033   2.531   1.403  0.00  0.00    +0.119 HD
ATOM     27  H2  UNL     1      -7.643   2.681  -0.160  0.00  0.00    +0.119 HD
ENDBRANCH  24  25
BRANCH  24  28
ATOM     28  C   UNL     1      -5.321   3.179   0.716  0.00  0.00    +0.046 C 
ATOM     29  C   UNL     1      -6.025   4.109  -0.297  0.00  0.00    +0.012 C 
BRANCH  28  30
ATOM     30  C   UNL     1      -3.822   2.948   0.344  0.00  0.00    +0.168 C 
BRANCH  30  32
ATOM     31  N   UNL     1      -2.384   4.747   1.226  0.00  0.00    -0.254 NA
ATOM     32  C   UNL     1      -2.768   3.447   1.327  0.00  0.00    +0.070 A 
ATOM     33  C   UNL     1      -2.335   2.634   2.377  0.00  0.00    +0.029 A 
ATOM     34  C   UNL     1      -1.448   3.142   3.322  0.00  0.00    +0.049 A 
ATOM     35  C   UNL     1      -1.531   5.220   2.169  0.00  0.00    +0.156 A 
ATOM     36  C   UNL     1      -1.049   4.461   3.224  0.00  0.00    +0.135 A 
BRANCH  36  37
ATOM     37  O   UNL     1      -0.215   4.955   4.179  0.00  0.00    -0.505 OA
ATOM     38  H   UNL     1      -0.723   5.529   4.776  0.00  0.00    +0.292 HD
ENDBRANCH  36  37
ENDBRANCH  30  32
BRANCH  30  39
ATOM     39  O   UNL     1      -3.610   1.533   0.181  0.00  0.00    -0.385 OA
ATOM     40  H   UNL     1      -3.273   1.427  -0.730  0.00  0.00    +0.210 HD
ENDBRANCH  30  39
ENDBRANCH  28  30
ENDBRANCH  24  28
ENDBRANCH  22  24
ENDBRANCH   1  21
BRANCH   1  42
ATOM     41  OXT UNL     1      -8.702   0.396   4.744  0.00  0.00    -0.249 OA
ATOM     42  C   UNL     1      -8.010   1.198   5.361  0.00  0.00    +0.328 C 
BRANCH  42  43
ATOM     43  O   UNL     1      -8.258   1.522   6.654  0.00  0.00    -0.479 OA
ATOM     44  H   UNL     1      -7.505   1.987   7.089  0.00  0.00    +0.295 HD
ENDBRANCH  42  43
ENDBRANCH   1  42
TORSDOF 14
ENDMDL
MODEL 2
REMARK VINA RESULT:     0.000      9.882     13.238
REMARK INTER + INTRA:          -3.636
REMARK INTER:                   0.000
REMARK INTRA:                  -3.636
REMARK UNBOUND:                -3.636
REMARK  Name = 456557
REMARK  15 active torsions:
REMARK  status: ('A' for Active; 'I' for Inactive)
REMARK    1  A    between atoms: O_2  and  C_17
REMARK    2  A    between atoms: O_3  and  C_18
REMARK    3  A    between atoms: O_4  and  C_22
REMARK    4  A    between atoms: O_7  and  C_27
REMARK    5  A    between atoms: O_10  and  C_35
REMARK    6  A    between atoms: N_11  and  C_19
REMARK    7  A    between atoms: N_12  and  CA_20
REMARK    8  A    between atoms: N_13  and  CA_21
REMARK    9  A    between atoms: C_16  and  CA_20
REMARK   10  A    between atoms: CA_20  and  C_22
REMARK   11  A    between atoms: CA_21  and  C_23
REMARK   12  A    between atoms: CA_21  and  C_24
REMARK   13  A    between atoms: C_23  and  C_27
REMARK   14  A    between atoms: C_23  and  C_28
REMARK   15  A    between atoms: C_27  and  C_30
REMARK                            x       y       z     vdW  Elec       q    Type
REMARK                         _______ _______ _______ _____ _____    ______ ____
ROOT
ATOM      1  CA  UNL     1       7.131  -0.169   0.887  0.00  0.00    +0.213 C 
ENDROOT
BRANCH   1   3
ATOM      2  O   UNL     1       8.384  -0.926  -1.101  0.00  0.00    -0.345 OA
ATOM      3  C   UNL     1       8.170   0.197  -0.205  0.00  0.00    +0.183 C 
ATOM      4  C   UNL     1       7.759   1.363  -1.116  0.00  0.00    +0.178 C 
ATOM      5  C   UNL     1       7.063   0.673  -2.284  0.00  0.00    +0.195 C 
ATOM      6  C   UNL     1       7.965  -0.558  -2.428  0.00  0.00    +0.255 C 
BRANCH   6   9
ATOM      7  O   UNL     1       7.691  -0.902  -5.193  0.00  0.00    -0.246 OA
ATOM      8  O   UNL     1       5.006  -4.428  -4.756  0.00  0.00    -0.268 OA
ATOM      9  N   UNL     1       7.398  -1.747  -3.059  0.00  0.00    -0.271 N 
ATOM     10  N   UNL     1       6.691  -2.911  -4.957  0.00  0.00    -0.275 N 
ATOM     11  C   UNL     1       7.318  -1.807  -4.443  0.00  0.00    +0.331 A 
ATOM     12  C   UNL     1       6.771  -2.684  -2.261  0.00  0.00    +0.098 A 
ATOM     13  C   UNL     1       6.012  -3.654  -2.778  0.00  0.00    +0.088 A 
ATOM     14  C   UNL     1       5.860  -3.717  -4.237  0.00  0.00    +0.254 A 
ATOM     15  H   UNL     1       6.538  -2.921  -5.954  0.00  0.00    +0.173 HD
ENDBRANCH   6   9
BRANCH   4  16
ATOM     16  O   UNL     1       8.915   2.018  -1.697  0.00  0.00    -0.386 OA
ATOM     17  H   UNL     1       9.140   2.793  -1.147  0.00  0.00    +0.210 HD
ENDBRANCH   4  16
BRANCH   5  18
ATOM     18  O   UNL     1       7.067   1.511  -3.445  0.00  0.00    -0.385 OA
ATOM     19  H   UNL     1       6.264   1.245  -3.952  0.00  0.00    +0.210 HD
ENDBRANCH   5  18
ENDBRANCH   1   3
BRANCH   1  21
ATOM     20  O   UNL     1       4.259  -0.442   0.819  0.00  0.00    -0.274 OA
ATOM     21  N   UNL     1       6.102   0.832   1.218  0.00  0.00    -0.299 N 
ATOM     22  C   UNL     1       4.757   0.663   0.995  0.00  0.00    +0.231 C 
ATOM     23  H   UNL     1       6.381   1.816   1.204  0.00  0.00    +0.150 HD
BRANCH  22  24
ATOM     24  CA  UNL     1       3.904   1.958   0.980  0.00  0.00    +0.143 C 
BRANCH  24  25
ATOM     25  N   UNL     1       4.458   2.891   2.004  0.00  0.00    -0.320 NA
ATOM     26  H1  UNL     1       3.973   3.787   1.938  0.00  0.00    +0.119 HD
ATOM     27  H2  UNL     1       4.216   2.532   2.929  0.00  0.00    +0.119 HD
ENDBRANCH  24  25
BRANCH  24  28
ATOM     28  C   UNL     1       3.852   2.611  -0.425  0.00  0.00    +0.046 C 
ATOM     29  C   UNL     1       3.829   4.153  -0.347  0.00  0.00    +0.012 C 
BRANCH  28  30
ATOM     30  C   UNL     1       2.716   2.062  -1.345  0.00  0.00    +0.168 C 
BRANCH  30  32
ATOM     31  N   UNL     1       3.403   2.042  -3.714  0.00  0.00    -0.254 NA
ATOM     32  C   UNL     1       3.133   1.307  -2.603  0.00  0.00    +0.070 A 
ATOM     33  C   UNL     1       3.367  -0.070  -2.559  0.00  0.00    +0.029 A 
ATOM     34  C   UNL     1       3.843  -0.724  -3.692  0.00  0.00    +0.049 A 
ATOM     35  C   UNL     1       3.880   1.381  -4.797  0.00  0.00    +0.156 A 
ATOM     36  C   UNL     1       4.116   0.015  -4.826  0.00  0.00    +0.135 A 
BRANCH  36  37
ATOM     37  O   UNL     1       4.622  -0.632  -5.912  0.00  0.00    -0.505 OA
ATOM     38  H   UNL     1       4.487  -1.588  -5.802  0.00  0.00    +0.292 HD
ENDBRANCH  36  37
ENDBRANCH  30  32
BRANCH  30  39
ATOM     39  O   UNL     1       1.897   1.168  -0.568  0.00  0.00    -0.385 OA
ATOM     40  H   UNL     1       0.998   1.254  -0.940  0.00  0.00    +0.210 HD
ENDBRANCH  30  39
ENDBRANCH  28  30
ENDBRANCH  24  28
ENDBRANCH  22  24
ENDBRANCH   1  21
BRANCH   1  42
ATOM     41  OXT UNL     1       7.447  -0.313   3.310  0.00  0.00    -0.249 OA
ATOM     42  C   UNL     1       7.898  -0.482   2.182  0.00  0.00    +0.328 C 
BRANCH  42  43
ATOM     43  O   UNL     1       9.138  -0.986   1.967  0.00  0.00    -0.479 OA
ATOM     44  H   UNL     1       9.445  -0.881   1.037  0.00  0.00    +0.295 HD
ENDBRANCH  42  43
ENDBRANCH   1  42
TORSDOF 14
ENDMDL
MODEL 3
REMARK VINA RESULT:     0.001      7.565      9.468
REMARK INTER + INTRA:          -3.635
REMARK INTER:                   0.000
REMARK INTRA:                  -3.635
REMARK UNBOUND:                -3.636
REMARK  Name = 456557
REMARK  15 active torsions:
REMARK  status: ('A' for Active; 'I' for Inactive)
REMARK    1  A    between atoms: O_2  and  C_17
REMARK    2  A    between atoms: O_3  and  C_18
REMARK    3  A    between atoms: O_4  and  C_22
REMARK    4  A    between atoms: O_7  and  C_27
REMARK    5  A    between atoms: O_10  and  C_35
REMARK    6  A    between atoms: N_11  and  C_19
REMARK    7  A    between atoms: N_12  and  CA_20
REMARK    8  A    between atoms: N_13  and  CA_21
REMARK    9  A    between atoms: C_16  and  CA_20
REMARK   10  A    between atoms: CA_20  and  C_22
REMARK   11  A    between atoms: CA_21  and  C_23
REMARK   12  A    between atoms: CA_21  and  C_24
REMARK   13  A    between atoms: C_23  and  C_27
REMARK   14  A    between atoms: C_23  and  C_28
REMARK   15  A    between atoms: C_27  and  C_30
REMARK                            x       y       z     vdW  Elec       q    Type
REMARK                         _______ _______ _______ _____ _____    ______ ____
ROOT
ATOM      1  CA  UNL     1      -0.202  -0.062   0.784  0.00  0.00    +0.213 C 
ENDROOT
BRANCH   1   3
ATOM      2  O   UNL     1       1.279  -0.771   2.627  0.00  0.00    -0.345 OA
ATOM      3  C   UNL     1       1.030   0.284   1.660  0.00  0.00    +0.183 C 
ATOM      4  C   UNL     1       2.347   0.435   0.885  0.00  0.00    +0.178 C 
ATOM      5  C   UNL     1       2.949  -0.965   0.931  0.00  0.00    +0.195 C 
ATOM      6  C   UNL     1       2.566  -1.360   2.362  0.00  0.00    +0.255 C 
BRANCH   6   9
ATOM      7  O   UNL     1       4.764  -3.010   2.895  0.00  0.00    -0.246 OA
ATOM      8  O   UNL     1       2.383  -6.754   2.520  0.00  0.00    -0.268 OA
ATOM      9  N   UNL     1       2.472  -2.784   2.672  0.00  0.00    -0.271 N 
ATOM     10  N   UNL     1       3.474  -4.848   3.116  0.00  0.00    -0.275 N 
ATOM     11  C   UNL     1       3.633  -3.501   2.926  0.00  0.00    +0.331 A 
ATOM     12  C   UNL     1       1.258  -3.420   2.502  0.00  0.00    +0.098 A 
ATOM     13  C   UNL     1       1.153  -4.752   2.514  0.00  0.00    +0.088 A 
ATOM     14  C   UNL     1       2.370  -5.546   2.726  0.00  0.00    +0.254 A 
ATOM     15  H   UNL     1       4.317  -5.395   3.203  0.00  0.00    +0.173 HD
ENDBRANCH   6   9
BRANCH   4  16
ATOM     16  O   UNL     1       3.290   1.278   1.594  0.00  0.00    -0.386 OA
ATOM     17  H   UNL     1       4.192   0.955   1.410  0.00  0.00    +0.210 HD
ENDBRANCH   4  16
BRANCH   5  18
ATOM     18  O   UNL     1       4.365  -0.916   0.724  0.00  0.00    -0.385 OA
ATOM     19  H   UNL     1       4.573   0.043   0.622  0.00  0.00    +0.210 HD
ENDBRANCH   5  18
ENDBRANCH   1   3
BRANCH   1  21
ATOM     20  O   UNL     1      -0.582  -1.910  -1.399  0.00  0.00    -0.274 OA
ATOM     21  N   UNL     1      -0.106   0.190  -0.665  0.00  0.00    -0.299 N 
ATOM     22  C   UNL     1      -0.139  -0.790  -1.625  0.00  0.00    +0.231 C 
ATOM     23  H   UNL     1       0.419   1.015  -0.965  0.00  0.00    +0.150 HD
BRANCH  22  24
ATOM     24  CA  UNL     1       0.419  -0.397  -3.017  0.00  0.00    +0.143 C 
BRANCH  24  25
ATOM     25  N   UNL     1       0.047   1.024  -3.282  0.00  0.00    -0.320 NA
ATOM     26  H1  UNL     1       0.017   1.180  -4.290  0.00  0.00    +0.119 HD
ATOM     27  H2  UNL     1      -0.915   1.166  -2.968  0.00  0.00    +0.119 HD
ENDBRANCH  24  25
BRANCH  24  28
ATOM     28  C   UNL     1       1.950  -0.619  -3.121  0.00  0.00    +0.046 C 
ATOM     29  C   UNL     1       2.635   0.460  -3.988  0.00  0.00    +0.012 C 
BRANCH  28  30
ATOM     30  C   UNL     1       2.360  -2.060  -3.560  0.00  0.00    +0.168 C 
BRANCH  30  32
ATOM     31  N   UNL     1       4.472  -2.763  -2.499  0.00  0.00    -0.254 NA
ATOM     32  C   UNL     1       3.122  -2.913  -2.552  0.00  0.00    +0.070 A 
ATOM     33  C   UNL     1       2.434  -3.701  -1.625  0.00  0.00    +0.029 A 
ATOM     34  C   UNL     1       3.144  -4.394  -0.648  0.00  0.00    +0.049 A 
ATOM     35  C   UNL     1       5.136  -3.439  -1.528  0.00  0.00    +0.156 A 
ATOM     36  C   UNL     1       4.517  -4.251  -0.591  0.00  0.00    +0.135 A 
BRANCH  36  37
ATOM     37  O   UNL     1       5.192  -4.901   0.396  0.00  0.00    -0.505 OA
ATOM     38  H   UNL     1       6.141  -4.890   0.191  0.00  0.00    +0.292 HD
ENDBRANCH  36  37
ENDBRANCH  30  32
BRANCH  30  39
ATOM     39  O   UNL     1       1.164  -2.784  -3.907  0.00  0.00    -0.385 OA
ATOM     40  H   UNL     1       0.686  -2.207  -4.534  0.00  0.00    +0.210 HD
ENDBRANCH  30  39
ENDBRANCH  28  30
ENDBRANCH  24  28
ENDBRANCH  22  24
ENDBRANCH   1  21
BRANCH   1  42
ATOM     41  OXT UNL     1      -2.344   1.112   0.621  0.00  0.00    -0.249 OA
ATOM     42  C   UNL     1      -1.397   0.749   1.311  0.00  0.00    +0.328 C 
BRANCH  42  43
ATOM     43  O   UNL     1      -1.324   1.021   2.637  0.00  0.00    -0.479 OA
ATOM     44  H   UNL     1      -2.017   1.652   2.944  0.00  0.00    +0.295 HD
ENDBRANCH  42  43
ENDBRANCH   1  42
TORSDOF 14
ENDMDL
MODEL 4
REMARK VINA RESULT:     0.001      5.682      9.034
REMARK INTER + INTRA:          -3.635
REMARK INTER:                   0.000
REMARK INTRA:                  -3.635
REMARK UNBOUND:                -3.636
REMARK  Name = 456557
REMARK  15 active torsions:
REMARK  status: ('A' for Active; 'I' for Inactive)
REMARK    1  A    between atoms: O_2  and  C_17
REMARK    2  A    between atoms: O_3  and  C_18
REMARK    3  A    between atoms: O_4  and  C_22
REMARK    4  A    between atoms: O_7  and  C_27
REMARK    5  A    between atoms: O_10  and  C_35
REMARK    6  A    between atoms: N_11  and  C_19
REMARK    7  A    between atoms: N_12  and  CA_20
REMARK    8  A    between atoms: N_13  and  CA_21
REMARK    9  A    between atoms: C_16  and  CA_20
REMARK   10  A    between atoms: CA_20  and  C_22
REMARK   11  A    between atoms: CA_21  and  C_23
REMARK   12  A    between atoms: CA_21  and  C_24
REMARK   13  A    between atoms: C_23  and  C_27
REMARK   14  A    between atoms: C_23  and  C_28
REMARK   15  A    between atoms: C_27  and  C_30
REMARK                            x       y       z     vdW  Elec       q    Type
REMARK                         _______ _______ _______ _____ _____    ______ ____
ROOT
ATOM      1  CA  UNL     1      -3.131   0.114  -2.481  0.00  0.00    +0.213 C 
ENDROOT
BRANCH   1   3
ATOM      2  O   UNL     1      -4.280   0.533  -0.336  0.00  0.00    -0.345 OA
ATOM      3  C   UNL     1      -3.828  -0.508  -1.243  0.00  0.00    +0.183 C 
ATOM      4  C   UNL     1      -5.083  -1.334  -1.560  0.00  0.00    +0.178 C 
ATOM      5  C   UNL     1      -6.215  -0.318  -1.446  0.00  0.00    +0.195 C 
ATOM      6  C   UNL     1      -5.715   0.486  -0.240  0.00  0.00    +0.255 C 
BRANCH   6   9
ATOM      7  O   UNL     1      -8.216   1.183   0.809  0.00  0.00    -0.246 OA
ATOM      8  O   UNL     1      -7.923   5.400  -0.589  0.00  0.00    -0.268 OA
ATOM      9  N   UNL     1      -6.194   1.857  -0.093  0.00  0.00    -0.271 N 
ATOM     10  N   UNL     1      -7.870   3.387   0.469  0.00  0.00    -0.275 N 
ATOM     11  C   UNL     1      -7.452   2.082   0.448  0.00  0.00    +0.331 A 
ATOM     12  C   UNL     1      -5.473   2.878  -0.681  0.00  0.00    +0.098 A 
ATOM     13  C   UNL     1      -5.972   4.109  -0.812  0.00  0.00    +0.088 A 
ATOM     14  C   UNL     1      -7.324   4.371  -0.300  0.00  0.00    +0.254 A 
ATOM     15  H   UNL     1      -8.819   3.553   0.766  0.00  0.00    +0.173 HD
ENDBRANCH   6   9
BRANCH   4  16
ATOM     16  O   UNL     1      -5.350  -2.317  -0.529  0.00  0.00    -0.386 OA
ATOM     17  H   UNL     1      -6.127  -2.024  -0.016  0.00  0.00    +0.210 HD
ENDBRANCH   4  16
BRANCH   5  18
ATOM     18  O   UNL     1      -7.464  -0.975  -1.204  0.00  0.00    -0.385 OA
ATOM     19  H   UNL     1      -7.315  -1.508  -0.388  0.00  0.00    +0.210 HD
ENDBRANCH   5  18
ENDBRANCH   1   3
BRANCH   1  21
ATOM     20  O   UNL     1      -4.166   1.461  -4.814  0.00  0.00    -0.274 OA
ATOM     21  N   UNL     1      -3.452  -0.450  -3.804  0.00  0.00    -0.299 N 
ATOM     22  C   UNL     1      -4.098   0.237  -4.802  0.00  0.00    +0.231 C 
ATOM     23  H   UNL     1      -3.605  -1.460  -3.861  0.00  0.00    +0.150 HD
BRANCH  22  24
ATOM     24  CA  UNL     1      -4.738  -0.628  -5.918  0.00  0.00    +0.143 C 
BRANCH  24  25
ATOM     25  N   UNL     1      -3.847  -1.798  -6.167  0.00  0.00    -0.320 NA
ATOM     26  H1  UNL     1      -4.252  -2.377  -6.904  0.00  0.00    +0.119 HD
ATOM     27  H2  UNL     1      -2.969  -1.454  -6.560  0.00  0.00    +0.119 HD
ENDBRANCH  24  25
BRANCH  24  28
ATOM     28  C   UNL     1      -6.182  -1.070  -5.563  0.00  0.00    +0.046 C 
ATOM     29  C   UNL     1      -6.498  -2.489  -6.085  0.00  0.00    +0.012 C 
BRANCH  28  30
ATOM     30  C   UNL     1      -7.285  -0.044  -5.972  0.00  0.00    +0.168 C 
BRANCH  30  32
ATOM     31  N   UNL     1      -9.162  -0.048  -4.372  0.00  0.00    -0.254 NA
ATOM     32  C   UNL     1      -8.079   0.619  -4.851  0.00  0.00    +0.070 A 
ATOM     33  C   UNL     1      -7.614   1.792  -4.250  0.00  0.00    +0.029 A 
ATOM     34  C   UNL     1      -8.299   2.327  -3.163  0.00  0.00    +0.049 A 
ATOM     35  C   UNL     1      -9.801   0.489  -3.302  0.00  0.00    +0.156 A 
ATOM     36  C   UNL     1      -9.404   1.658  -2.673  0.00  0.00    +0.135 A 
BRANCH  36  37
ATOM     37  O   UNL     1     -10.038   2.171  -1.583  0.00  0.00    -0.505 OA
ATOM     38  H   UNL     1      -9.516   1.967  -0.788  0.00  0.00    +0.292 HD
ENDBRANCH  36  37
ENDBRANCH  30  32
BRANCH  30  39
ATOM     39  O   UNL     1      -6.663   1.011  -6.729  0.00  0.00    -0.385 OA
ATOM     40  H   UNL     1      -7.292   1.758  -6.695  0.00  0.00    +0.210 HD
ENDBRANCH  30  39
ENDBRANCH  28  30
ENDBRANCH  24  28
ENDBRANCH  22  24
ENDBRANCH   1  21
BRANCH   1  42
ATOM     41  OXT UNL     1      -0.802  -0.113  -3.199  0.00  0.00    -0.249 OA
ATOM     42  C   UNL     1      -1.612  -0.020  -2.283  0.00  0.00    +0.328 C 
BRANCH  42  43
ATOM     43  O   UNL     1      -1.233  -0.009  -0.981  0.00  0.00    -0.479 OA
ATOM     44  H   UNL     1      -1.351  -0.880  -0.535  0.00  0.00    +0.295 HD
ENDBRANCH  42  43
ENDBRANCH   1  42
TORSDOF 14
ENDMDL
MODEL 5
REMARK VINA RESULT:     0.001      9.043     12.302
REMARK INTER + INTRA:          -3.634
REMARK INTER:                   0.000
REMARK INTRA:                  -3.634
REMARK UNBOUND:                -3.636
REMARK  Name = 456557
REMARK  15 active torsions:
REMARK  status: ('A' for Active; 'I' for Inactive)
REMARK    1  A    between atoms: O_2  and  C_17
REMARK    2  A    between atoms: O_3  and  C_18
REMARK    3  A    between atoms: O_4  and  C_22
REMARK    4  A    between atoms: O_7  and  C_27
REMARK    5  A    between atoms: O_10  and  C_35
REMARK    6  A    between atoms: N_11  and  C_19
REMARK    7  A    between atoms: N_12  and  CA_20
REMARK    8  A    between atoms: N_13  and  CA_21
REMARK    9  A    between atoms: C_16  and  CA_20
REMARK   10  A    between atoms: CA_20  and  C_22
REMARK   11  A    between atoms: CA_21  and  C_23
REMARK   12  A    between atoms: CA_21  and  C_24
REMARK   13  A    between atoms: C_23  and  C_27
REMARK   14  A    between atoms: C_23  and  C_28
REMARK   15  A    between atoms: C_27  and  C_30
REMARK                            x       y       z     vdW  Elec       q    Type
REMARK                         _______ _______ _______ _____ _____    ______ ____
ROOT
ATOM      1  CA  UNL     1       6.533  -2.039   2.171  0.00  0.00    +0.213 C 
ENDROOT
BRANCH   1   3
ATOM      2  O   UNL     1       4.908  -3.897   2.115  0.00  0.00    -0.345 OA
ATOM      3  C   UNL     1       6.233  -3.482   1.687  0.00  0.00    +0.183 C 
ATOM      4  C   UNL     1       6.236  -3.661   0.162  0.00  0.00    +0.178 C 
ATOM      5  C   UNL     1       4.778  -3.435  -0.225  0.00  0.00    +0.195 C 
ATOM      6  C   UNL     1       4.090  -4.134   0.954  0.00  0.00    +0.255 C 
BRANCH   6   9
ATOM      7  O   UNL     1       1.807  -5.007  -0.411  0.00  0.00    -0.246 OA
ATOM      8  O   UNL     1      -0.813  -1.930   1.459  0.00  0.00    -0.268 OA
ATOM      9  N   UNL     1       2.727  -3.727   1.283  0.00  0.00    -0.271 N 
ATOM     10  N   UNL     1       0.431  -3.734   0.846  0.00  0.00    -0.275 N 
ATOM     11  C   UNL     1       1.670  -4.232   0.538  0.00  0.00    +0.331 A 
ATOM     12  C   UNL     1       2.542  -2.699   2.187  0.00  0.00    +0.098 A 
ATOM     13  C   UNL     1       1.358  -2.104   2.344  0.00  0.00    +0.088 A 
ATOM     14  C   UNL     1       0.227  -2.575   1.533  0.00  0.00    +0.254 A 
ATOM     15  H   UNL     1      -0.330  -4.016   0.248  0.00  0.00    +0.173 HD
ENDBRANCH   6   9
BRANCH   4  16
ATOM     16  O   UNL     1       6.520  -5.032  -0.213  0.00  0.00    -0.386 OA
ATOM     17  H   UNL     1       6.100  -5.209  -1.076  0.00  0.00    +0.210 HD
ENDBRANCH   4  16
BRANCH   5  18
ATOM     18  O   UNL     1       4.487  -4.046  -1.486  0.00  0.00    -0.385 OA
ATOM     19  H   UNL     1       4.963  -3.494  -2.151  0.00  0.00    +0.210 HD
ENDBRANCH   5  18
ENDBRANCH   1   3
BRANCH   1  21
ATOM     20  O   UNL     1       5.625   0.547   1.269  0.00  0.00    -0.274 OA
ATOM     21  N   UNL     1       7.177  -1.116   1.219  0.00  0.00    -0.299 N 
ATOM     22  C   UNL     1       6.587   0.020   0.723  0.00  0.00    +0.231 C 
ATOM     23  H   UNL     1       7.871  -1.510   0.578  0.00  0.00    +0.150 HD
BRANCH  22  24
ATOM     24  CA  UNL     1       7.212   0.599  -0.572  0.00  0.00    +0.143 C 
BRANCH  24  25
ATOM     25  N   UNL     1       8.690   0.407  -0.501  0.00  0.00    -0.320 NA
ATOM     26  H1  UNL     1       8.941   0.075   0.431  0.00  0.00    +0.119 HD
ATOM     27  H2  UNL     1       8.943  -0.360  -1.127  0.00  0.00    +0.119 HD
ENDBRANCH  24  25
BRANCH  24  28
ATOM     28  C   UNL     1       6.610  -0.039  -1.851  0.00  0.00    +0.046 C 
ATOM     29  C   UNL     1       7.663  -0.199  -2.970  0.00  0.00    +0.012 C 
BRANCH  28  30
ATOM     30  C   UNL     1       5.318   0.667  -2.371  0.00  0.00    +0.168 C 
BRANCH  30  32
ATOM     31  N   UNL     1       3.759  -0.945  -3.400  0.00  0.00    -0.254 NA
ATOM     32  C   UNL     1       4.019  -0.133  -2.341  0.00  0.00    +0.070 A 
ATOM     33  C   UNL     1       3.214  -0.135  -1.199  0.00  0.00    +0.029 A 
ATOM     34  C   UNL     1       2.085  -0.949  -1.154  0.00  0.00    +0.049 A 
ATOM     35  C   UNL     1       2.662  -1.738  -3.322  0.00  0.00    +0.156 A 
ATOM     36  C   UNL     1       1.811  -1.774  -2.228  0.00  0.00    +0.135 A 
BRANCH  36  37
ATOM     37  O   UNL     1       0.729  -2.595  -2.151  0.00  0.00    -0.505 OA
ATOM     38  H   UNL     1       0.788  -3.264  -2.853  0.00  0.00    +0.292 HD
ENDBRANCH  36  37
ENDBRANCH  30  32
BRANCH  30  39
ATOM     39  O   UNL     1       5.101   1.852  -1.583  0.00  0.00    -0.385 OA
ATOM     40  H   UNL     1       5.484   1.652  -0.706  0.00  0.00    +0.210 HD
ENDBRANCH  30  39
ENDBRANCH  28  30
ENDBRANCH  24  28
ENDBRANCH  22  24
ENDBRANCH   1  21
BRANCH   1  42
ATOM     41  OXT UNL     1       8.262  -1.279   3.728  0.00  0.00    -0.249 OA
ATOM     42  C   UNL     1       7.447  -2.136   3.404  0.00  0.00    +0.328 C 
BRANCH  42  43
ATOM     43  O   UNL     1       7.261  -3.266   4.128  0.00  0.00    -0.479 OA
ATOM     44  H   UNL     1       6.339  -3.613   4.078  0.00  0.00    +0.295 HD
ENDBRANCH  42  43
ENDBRANCH   1  42
TORSDOF 14
ENDMDL
MODEL 6
REMARK VINA RESULT:     0.001      5.803      9.414
REMARK INTER + INTRA:          -3.634
REMARK INTER:                   0.000
REMARK INTRA:                  -3.634
REMARK UNBOUND:                -3.636
REMARK  Name = 456557
REMARK  15 active torsions:
REMARK  status: ('A' for Active; 'I' for Inactive)
REMARK    1  A    between atoms: O_2  and  C_17
REMARK    2  A    between atoms: O_3  and  C_18
REMARK    3  A    between atoms: O_4  and  C_22
REMARK    4  A    between atoms: O_7  and  C_27
REMARK    5  A    between atoms: O_10  and  C_35
REMARK    6  A    between atoms: N_11  and  C_19
REMARK    7  A    between atoms: N_12  and  CA_20
REMARK    8  A    between atoms: N_13  and  CA_21
REMARK    9  A    between atoms: C_16  and  CA_20
REMARK   10  A    between atoms: CA_20  and  C_22
REMARK   11  A    between atoms: CA_21  and  C_23
REMARK   12  A    between atoms: CA_21  and  C_24
REMARK   13  A    between atoms: C_23  and  C_27
REMARK   14  A    between atoms: C_23  and  C_28
REMARK   15  A    between atoms: C_27  and  C_30
REMARK                            x       y       z     vdW  Elec       q    Type
REMARK                         _______ _______ _______ _____ _____    ______ ____
ROOT
ATOM      1  CA  UNL     1      -1.382   0.920  -0.827  0.00  0.00    +0.213 C 
ENDROOT
BRANCH   1   3
ATOM      2  O   UNL     1      -2.847  -0.025   0.921  0.00  0.00    -0.345 OA
ATOM      3  C   UNL     1      -1.470   0.069   0.467  0.00  0.00    +0.183 C 
ATOM      4  C   UNL     1      -0.999  -1.384   0.313  0.00  0.00    +0.178 C 
ATOM      5  C   UNL     1      -2.278  -2.137  -0.038  0.00  0.00    +0.195 C 
ATOM      6  C   UNL     1      -3.266  -1.401   0.876  0.00  0.00    +0.255 C 
BRANCH   6   9
ATOM      7  O   UNL     1      -4.996  -3.548   1.361  0.00  0.00    -0.246 OA
ATOM      8  O   UNL     1      -8.166  -1.947  -1.324  0.00  0.00    -0.268 OA
ATOM      9  N   UNL     1      -4.678  -1.422   0.506  0.00  0.00    -0.271 N 
ATOM     10  N   UNL     1      -6.732  -2.526   0.344  0.00  0.00    -0.275 N 
ATOM     11  C   UNL     1      -5.441  -2.542   0.804  0.00  0.00    +0.331 A 
ATOM     12  C   UNL     1      -5.164  -0.418  -0.310  0.00  0.00    +0.098 A 
ATOM     13  C   UNL     1      -6.361  -0.504  -0.895  0.00  0.00    +0.088 A 
ATOM     14  C   UNL     1      -7.175  -1.701  -0.646  0.00  0.00    +0.254 A 
ATOM     15  H   UNL     1      -7.266  -3.372   0.467  0.00  0.00    +0.173 HD
ENDBRANCH   6   9
BRANCH   4  16
ATOM     16  O   UNL     1      -0.566  -1.941   1.579  0.00  0.00    -0.386 OA
ATOM     17  H   UNL     1      -0.074  -1.254   2.067  0.00  0.00    +0.210 HD
ENDBRANCH   4  16
BRANCH   5  18
ATOM     18  O   UNL     1      -2.152  -3.527   0.277  0.00  0.00    -0.385 OA
ATOM     19  H   UNL     1      -2.619  -3.996  -0.454  0.00  0.00    +0.210 HD
ENDBRANCH   5  18
ENDBRANCH   1   3
BRANCH   1  21
ATOM     20  O   UNL     1      -2.068   0.354  -3.573  0.00  0.00    -0.274 OA
ATOM     21  N   UNL     1      -0.513   0.430  -1.913  0.00  0.00    -0.299 N 
ATOM     22  C   UNL     1      -0.966   0.030  -3.146  0.00  0.00    +0.231 C 
ATOM     23  H   UNL     1       0.357  -0.036  -1.645  0.00  0.00    +0.150 HD
BRANCH  22  24
ATOM     24  CA  UNL     1       0.002  -0.858  -3.969  0.00  0.00    +0.143 C 
BRANCH  24  25
ATOM     25  N   UNL     1       1.394  -0.384  -3.718  0.00  0.00    -0.320 NA
ATOM     26  H1  UNL     1       2.003  -0.720  -4.466  0.00  0.00    +0.119 HD
ATOM     27  H2  UNL     1       1.407   0.633  -3.809  0.00  0.00    +0.119 HD
ENDBRANCH  24  25
BRANCH  24  28
ATOM     28  C   UNL     1      -0.160  -2.365  -3.641  0.00  0.00    +0.046 C 
ATOM     29  C   UNL     1       1.188  -3.117  -3.692  0.00  0.00    +0.012 C 
BRANCH  28  30
ATOM     30  C   UNL     1      -1.258  -3.089  -4.483  0.00  0.00    +0.168 C 
BRANCH  30  32
ATOM     31  N   UNL     1      -2.372  -4.863  -3.181  0.00  0.00    -0.254 NA
ATOM     32  C   UNL     1      -2.475  -3.627  -3.738  0.00  0.00    +0.070 A 
ATOM     33  C   UNL     1      -3.589  -2.813  -3.517  0.00  0.00    +0.029 A 
ATOM     34  C   UNL     1      -4.648  -3.289  -2.749  0.00  0.00    +0.049 A 
ATOM     35  C   UNL     1      -3.412  -5.294  -2.425  0.00  0.00    +0.156 A 
ATOM     36  C   UNL     1      -4.553  -4.545  -2.183  0.00  0.00    +0.135 A 
BRANCH  36  37
ATOM     37  O   UNL     1      -5.578  -4.979  -1.399  0.00  0.00    -0.505 OA
ATOM     38  H   UNL     1      -5.297  -5.778  -0.924  0.00  0.00    +0.292 HD
ENDBRANCH  36  37
ENDBRANCH  30  32
BRANCH  30  39
ATOM     39  O   UNL     1      -1.745  -2.169  -5.478  0.00  0.00    -0.385 OA
ATOM     40  H   UNL     1      -2.690  -2.037  -5.265  0.00  0.00    +0.210 HD
ENDBRANCH  30  39
ENDBRANCH  28  30
ENDBRANCH  24  28
ENDBRANCH  22  24
ENDBRANCH   1  21
BRANCH   1  42
ATOM     41  OXT UNL     1      -0.245   3.058  -1.183  0.00  0.00    -0.249 OA
ATOM     42  C   UNL     1      -0.881   2.320  -0.438  0.00  0.00    +0.328 C 
BRANCH  42  43
ATOM     43  O   UNL     1      -1.224   2.687   0.821  0.00  0.00    -0.479 OA
ATOM     44  H   UNL     1      -0.600   3.337   1.220  0.00  0.00    +0.295 HD
ENDBRANCH  42  43
ENDBRANCH   1  42
TORSDOF 14
ENDMDL
MODEL 7
REMARK VINA RESULT:     0.002      4.928      7.032
REMARK INTER + INTRA:          -3.634
REMARK INTER:                   0.000
REMARK INTRA:                  -3.634
REMARK UNBOUND:                -3.636
REMARK  Name = 456557
REMARK  15 active torsions:
REMARK  status: ('A' for Active; 'I' for Inactive)
REMARK    1  A    between atoms: O_2  and  C_17
REMARK    2  A    between atoms: O_3  and  C_18
REMARK    3  A    between atoms: O_4  and  C_22
REMARK    4  A    between atoms: O_7  and  C_27
REMARK    5  A    between atoms: O_10  and  C_35
REMARK    6  A    between atoms: N_11  and  C_19
REMARK    7  A    between atoms: N_12  and  CA_20
REMARK    8  A    between atoms: N_13  and  CA_21
REMARK    9  A    between atoms: C_16  and  CA_20
REMARK   10  A    between atoms: CA_20  and  C_22
REMARK   11  A    between atoms: CA_21  and  C_23
REMARK   12  A    between atoms: CA_21  and  C_24
REMARK   13  A    between atoms: C_23  and  C_27
REMARK   14  A    between atoms: C_23  and  C_28
REMARK   15  A    between atoms: C_27  and  C_30
REMARK                            x       y       z     vdW  Elec       q    Type
REMARK                         _______ _______ _______ _____ _____    ______ ____
ROOT
ATOM      1  CA  UNL     1      -5.254   0.783   4.245  0.00  0.00    +0.213 C 
ENDROOT
BRANCH   1   3
ATOM      2  O   UNL     1      -5.554  -0.776   6.135  0.00  0.00    -0.345 OA
ATOM      3  C   UNL     1      -4.723   0.298   5.619  0.00  0.00    +0.183 C 
ATOM      4  C   UNL     1      -3.299  -0.274   5.591  0.00  0.00    +0.178 C 
ATOM      5  C   UNL     1      -3.520  -1.767   5.368  0.00  0.00    +0.195 C 
ATOM      6  C   UNL     1      -4.762  -1.974   6.243  0.00  0.00    +0.255 C 
BRANCH   6   9
ATOM      7  O   UNL     1      -4.242  -4.617   7.006  0.00  0.00    -0.246 OA
ATOM      8  O   UNL     1      -7.363  -6.290   4.306  0.00  0.00    -0.268 OA
ATOM      9  N   UNL     1      -5.630  -3.107   5.934  0.00  0.00    -0.271 N 
ATOM     10  N   UNL     1      -6.085  -5.399   5.964  0.00  0.00    -0.275 N 
ATOM     11  C   UNL     1      -5.271  -4.374   6.371  0.00  0.00    +0.331 A 
ATOM     12  C   UNL     1      -6.670  -2.921   5.045  0.00  0.00    +0.098 A 
ATOM     13  C   UNL     1      -7.339  -3.950   4.519  0.00  0.00    +0.088 A 
ATOM     14  C   UNL     1      -6.952  -5.310   4.916  0.00  0.00    +0.254 A 
ATOM     15  H   UNL     1      -5.782  -6.334   6.190  0.00  0.00    +0.173 HD
ENDBRANCH   6   9
BRANCH   4  16
ATOM     16  O   UNL     1      -2.659  -0.175   6.888  0.00  0.00    -0.386 OA
ATOM     17  H   UNL     1      -3.351  -0.053   7.566  0.00  0.00    +0.210 HD
ENDBRANCH   4  16
BRANCH   5  18
ATOM     18  O   UNL     1      -2.388  -2.520   5.814  0.00  0.00    -0.385 OA
ATOM     19  H   UNL     1      -2.740  -3.423   5.995  0.00  0.00    +0.210 HD
ENDBRANCH   5  18
ENDBRANCH   1   3
BRANCH   1  21
ATOM     20  O   UNL     1      -5.124  -0.349   1.594  0.00  0.00    -0.274 OA
ATOM     21  N   UNL     1      -4.268   1.040   3.180  0.00  0.00    -0.299 N 
ATOM     22  C   UNL     1      -4.191   0.328   2.008  0.00  0.00    +0.231 C 
ATOM     23  H   UNL     1      -3.367   1.435   3.459  0.00  0.00    +0.150 HD
BRANCH  22  24
ATOM     24  CA  UNL     1      -2.849   0.431   1.238  0.00  0.00    +0.143 C 
BRANCH  24  25
ATOM     25  N   UNL     1      -2.336   1.824   1.385  0.00  0.00    -0.320 NA
ATOM     26  H1  UNL     1      -2.937   2.461   0.860  0.00  0.00    +0.119 HD
ATOM     27  H2  UNL     1      -2.449   2.106   2.361  0.00  0.00    +0.119 HD
ENDBRANCH  24  25
BRANCH  24  28
ATOM     28  C   UNL     1      -1.813  -0.617   1.720  0.00  0.00    +0.046 C 
ATOM     29  C   UNL     1      -0.372  -0.063   1.691  0.00  0.00    +0.012 C 
BRANCH  28  30
ATOM     30  C   UNL     1      -1.915  -1.998   0.998  0.00  0.00    +0.168 C 
BRANCH  30  32
ATOM     31  N   UNL     1      -1.331  -3.856   2.511  0.00  0.00    -0.254 NA
ATOM     32  C   UNL     1      -2.317  -3.204   1.840  0.00  0.00    +0.070 A 
ATOM     33  C   UNL     1      -3.665  -3.523   2.026  0.00  0.00    +0.029 A 
ATOM     34  C   UNL     1      -4.015  -4.566   2.878  0.00  0.00    +0.049 A 
ATOM     35  C   UNL     1      -1.702  -4.857   3.346  0.00  0.00    +0.156 A 
ATOM     36  C   UNL     1      -3.017  -5.237   3.560  0.00  0.00    +0.135 A 
BRANCH  36  37
ATOM     37  O   UNL     1      -3.379  -6.226   4.423  0.00  0.00    -0.505 OA
ATOM     38  H   UNL     1      -2.623  -6.822   4.555  0.00  0.00    +0.292 HD
ENDBRANCH  36  37
ENDBRANCH  30  32
BRANCH  30  39
ATOM     39  O   UNL     1      -2.883  -1.883  -0.062  0.00  0.00    -0.385 OA
ATOM     40  H   UNL     1      -3.127  -0.936  -0.087  0.00  0.00    +0.210 HD
ENDBRANCH  30  39
ENDBRANCH  28  30
ENDBRANCH  24  28
ENDBRANCH  22  24
ENDBRANCH   1  21
BRANCH   1  42
ATOM     41  OXT UNL     1      -6.135   2.986   3.643  0.00  0.00    -0.249 OA
ATOM     42  C   UNL     1      -6.031   2.090   4.474  0.00  0.00    +0.328 C 
BRANCH  42  43
ATOM     43  O   UNL     1      -6.618   2.164   5.693  0.00  0.00    -0.479 OA
ATOM     44  H   UNL     1      -5.973   2.123   6.438  0.00  0.00    +0.295 HD
ENDBRANCH  42  43
ENDBRANCH   1  42
TORSDOF 14
ENDMDL
MODEL 8
REMARK VINA RESULT:     0.002      9.837     11.690
REMARK INTER + INTRA:          -3.633
REMARK INTER:                   0.000
REMARK INTRA:                  -3.633
REMARK UNBOUND:                -3.636
REMARK  Name = 456557
REMARK  15 active torsions:
REMARK  status: ('A' for Active; 'I' for Inactive)
REMARK    1  A    between atoms: O_2  and  C_17
REMARK    2  A    between atoms: O_3  and  C_18
REMARK    3  A    between atoms: O_4  and  C_22
REMARK    4  A    between atoms: O_7  and  C_27
REMARK    5  A    between atoms: O_10  and  C_35
REMARK    6  A    between atoms: N_11  and  C_19
REMARK    7  A    between atoms: N_12  and  CA_20
REMARK    8  A    between atoms: N_13  and  CA_21
REMARK    9  A    between atoms: C_16  and  CA_20
REMARK   10  A    between atoms: CA_20  and  C_22
REMARK   11  A    between atoms: CA_21  and  C_23
REMARK   12  A    between atoms: CA_21  and  C_24
REMARK   13  A    between atoms: C_23  and  C_27
REMARK   14  A    between atoms: C_23  and  C_28
REMARK   15  A    between atoms: C_27  and  C_30
REMARK                            x       y       z     vdW  Elec       q    Type
REMARK                         _______ _______ _______ _____ _____    ______ ____
ROOT
ATOM      1  CA  UNL     1       1.370  -3.305  -0.503  0.00  0.00    +0.213 C 
ENDROOT
BRANCH   1   3
ATOM      2  O   UNL     1       3.211  -3.672   1.100  0.00  0.00    -0.345 OA
ATOM      3  C   UNL     1       2.175  -2.738   0.695  0.00  0.00    +0.183 C 
ATOM      4  C   UNL     1       2.912  -1.422   0.407  0.00  0.00    +0.178 C 
ATOM      5  C   UNL     1       4.292  -1.881  -0.054  0.00  0.00    +0.195 C 
ATOM      6  C   UNL     1       4.500  -3.061   0.903  0.00  0.00    +0.255 C 
BRANCH   6   9
ATOM      7  O   UNL     1       7.285  -2.877   1.119  0.00  0.00    -0.246 OA
ATOM      8  O   UNL     1       7.986  -6.430  -1.473  0.00  0.00    -0.268 OA
ATOM      9  N   UNL     1       5.430  -4.111   0.495  0.00  0.00    -0.271 N 
ATOM     10  N   UNL     1       7.605  -4.898   0.166  0.00  0.00    -0.275 N 
ATOM     11  C   UNL     1       6.793  -3.909   0.656  0.00  0.00    +0.331 A 
ATOM     12  C   UNL     1       4.942  -5.184  -0.225  0.00  0.00    +0.098 A 
ATOM     13  C   UNL     1       5.754  -6.041  -0.849  0.00  0.00    +0.088 A 
ATOM     14  C   UNL     1       7.204  -5.828  -0.746  0.00  0.00    +0.254 A 
ATOM     15  H   UNL     1       8.597  -4.720   0.186  0.00  0.00    +0.173 HD
ENDBRANCH   6   9
BRANCH   4  16
ATOM     16  O   UNL     1       3.149  -0.667   1.621  0.00  0.00    -0.386 OA
ATOM     17  H   UNL     1       4.047  -0.873   1.943  0.00  0.00    +0.210 HD
ENDBRANCH   4  16
BRANCH   5  18
ATOM     18  O   UNL     1       5.258  -0.840   0.122  0.00  0.00    -0.385 OA
ATOM     19  H   UNL     1       5.015  -0.409   0.975  0.00  0.00    +0.210 HD
ENDBRANCH   5  18
ENDBRANCH   1   3
BRANCH   1  21
ATOM     20  O   UNL     1       1.983  -3.569  -3.311  0.00  0.00    -0.274 OA
ATOM     21  N   UNL     1       1.044  -2.386  -1.608  0.00  0.00    -0.299 N 
ATOM     22  C   UNL     1       1.523  -2.514  -2.889  0.00  0.00    +0.231 C 
ATOM     23  H   UNL     1       0.830  -1.416  -1.365  0.00  0.00    +0.150 HD
BRANCH  22  24
ATOM     24  CA  UNL     1       1.449  -1.242  -3.772  0.00  0.00    +0.143 C 
BRANCH  24  25
ATOM     25  N   UNL     1       0.190  -0.516  -3.435  0.00  0.00    -0.320 NA
ATOM     26  H1  UNL     1       0.368   0.489  -3.451  0.00  0.00    +0.119 HD
ATOM     27  H2  UNL     1      -0.481  -0.674  -4.189  0.00  0.00    +0.119 HD
ENDBRANCH  24  25
BRANCH  24  28
ATOM     28  C   UNL     1       2.697  -0.337  -3.605  0.00  0.00    +0.046 C 
ATOM     29  C   UNL     1       2.341   1.163  -3.696  0.00  0.00    +0.012 C 
BRANCH  28  30
ATOM     30  C   UNL     1       3.887  -0.706  -4.545  0.00  0.00    +0.168 C 
BRANCH  30  32
ATOM     31  N   UNL     1       6.061  -0.278  -3.462  0.00  0.00    -0.254 NA
ATOM     32  C   UNL     1       5.170  -1.210  -3.892  0.00  0.00    +0.070 A 
ATOM     33  C   UNL     1       5.340  -2.570  -3.618  0.00  0.00    +0.029 A 
ATOM     34  C   UNL     1       6.473  -2.997  -2.932  0.00  0.00    +0.049 A 
ATOM     35  C   UNL     1       7.148  -0.722  -2.783  0.00  0.00    +0.156 A 
ATOM     36  C   UNL     1       7.386  -2.056  -2.495  0.00  0.00    +0.135 A 
BRANCH  36  37
ATOM     37  O   UNL     1       8.467  -2.486  -1.788  0.00  0.00    -0.505 OA
ATOM     38  H   UNL     1       8.947  -3.147  -2.314  0.00  0.00    +0.292 HD
ENDBRANCH  36  37
ENDBRANCH  30  32
BRANCH  30  39
ATOM     39  O   UNL     1       3.444  -1.734  -5.452  0.00  0.00    -0.385 OA
ATOM     40  H   UNL     1       3.296  -2.523  -4.895  0.00  0.00    +0.210 HD
ENDBRANCH  30  39
ENDBRANCH  28  30
ENDBRANCH  24  28
ENDBRANCH  22  24
ENDBRANCH   1  21
BRANCH   1  42
ATOM     41  OXT UNL     1      -1.000  -3.909  -0.606  0.00  0.00    -0.249 OA
ATOM     42  C   UNL     1       0.041  -3.856   0.040  0.00  0.00    +0.328 C 
BRANCH  42  43
ATOM     43  O   UNL     1       0.123  -4.304   1.317  0.00  0.00    -0.479 OA
ATOM     44  H   UNL     1       0.981  -4.085   1.752  0.00  0.00    +0.295 HD
ENDBRANCH  42  43
ENDBRANCH   1  42
TORSDOF 14
ENDMDL
MODEL 9
REMARK VINA RESULT:     0.003      6.920      8.506
REMARK INTER + INTRA:          -3.631
REMARK INTER:                   0.000
REMARK INTRA:                  -3.631
REMARK UNBOUND:                -3.636
REMARK  Name = 456557
REMARK  15 active torsions:
REMARK  status: ('A' for Active; 'I' for Inactive)
REMARK    1  A    between atoms: O_2  and  C_17
REMARK    2  A    between atoms: O_3  and  C_18
REMARK    3  A    between atoms: O_4  and  C_22
REMARK    4  A    between atoms: O_7  and  C_27
REMARK    5  A    between atoms: O_10  and  C_35
REMARK    6  A    between atoms: N_11  and  C_19
REMARK    7  A    between atoms: N_12  and  CA_20
REMARK    8  A    between atoms: N_13  and  CA_21
REMARK    9  A    between atoms: C_16  and  CA_20
REMARK   10  A    between atoms: CA_20  and  C_22
REMARK   11  A    between atoms: CA_21  and  C_23
REMARK   12  A    between atoms: CA_21  and  C_24
REMARK   13  A    between atoms: C_23  and  C_27
REMARK   14  A    between atoms: C_23  and  C_28
REMARK   15  A    between atoms: C_27  and  C_30
REMARK                            x       y       z     vdW  Elec       q    Type
REMARK                         _______ _______ _______ _____ _____    ______ ____
ROOT
ATOM      1  CA  UNL     1      -1.434  -2.688  -1.022  0.00  0.00    +0.213 C 
ENDROOT
BRANCH   1   3
ATOM      2  O   UNL     1      -0.934  -1.835   1.240  0.00  0.00    -0.345 OA
ATOM      3  C   UNL     1      -1.611  -1.528  -0.008  0.00  0.00    +0.183 C 
ATOM      4  C   UNL     1      -1.025  -0.183  -0.461  0.00  0.00    +0.178 C 
ATOM      5  C   UNL     1       0.391  -0.204   0.105  0.00  0.00    +0.195 C 
ATOM      6  C   UNL     1       0.114  -0.872   1.457  0.00  0.00    +0.255 C 
BRANCH   6   9
ATOM      7  O   UNL     1       2.129   0.402   2.925  0.00  0.00    -0.246 OA
ATOM      8  O   UNL     1       4.714  -3.222   3.030  0.00  0.00    -0.268 OA
ATOM      9  N   UNL     1       1.221  -1.565   2.111  0.00  0.00    -0.271 N 
ATOM     10  N   UNL     1       3.218  -1.534   3.326  0.00  0.00    -0.275 N 
ATOM     11  C   UNL     1       2.159  -0.826   2.819  0.00  0.00    +0.331 A 
ATOM     12  C   UNL     1       1.419  -2.904   1.838  0.00  0.00    +0.098 A 
ATOM     13  C   UNL     1       2.543  -3.535   2.186  0.00  0.00    +0.088 A 
ATOM     14  C   UNL     1       3.582  -2.772   2.889  0.00  0.00    +0.254 A 
ATOM     15  H   UNL     1       3.956  -0.997   3.755  0.00  0.00    +0.173 HD
ENDBRANCH   6   9
BRANCH   4  16
ATOM     16  O   UNL     1      -1.680   0.932   0.193  0.00  0.00    -0.386 OA
ATOM     17  H   UNL     1      -2.030   0.625   1.051  0.00  0.00    +0.210 HD
ENDBRANCH   4  16
BRANCH   5  18
ATOM     18  O   UNL     1       0.906   1.126   0.232  0.00  0.00    -0.385 OA
ATOM     19  H   UNL     1       0.226   1.702  -0.189  0.00  0.00    +0.210 HD
ENDBRANCH   5  18
ENDBRANCH   1   3
BRANCH   1  21
ATOM     20  O   UNL     1       0.810  -3.517  -2.636  0.00  0.00    -0.274 OA
ATOM     21  N   UNL     1      -1.123  -2.336  -2.419  0.00  0.00    -0.299 N 
ATOM     22  C   UNL     1       0.056  -2.645  -3.051  0.00  0.00    +0.231 C 
ATOM     23  H   UNL     1      -1.566  -1.498  -2.802  0.00  0.00    +0.150 HD
BRANCH  22  24
ATOM     24  CA  UNL     1       0.378  -1.823  -4.326  0.00  0.00    +0.143 C 
BRANCH  24  25
ATOM     25  N   UNL     1      -0.902  -1.562  -5.046  0.00  0.00    -0.320 NA
ATOM     26  H1  UNL     1      -1.552  -1.092  -4.415  0.00  0.00    +0.119 HD
ATOM     27  H2  UNL     1      -0.719  -0.881  -5.785  0.00  0.00    +0.119 HD
ENDBRANCH  24  25
BRANCH  24  28
ATOM     28  C   UNL     1       1.134  -0.508  -4.001  0.00  0.00    +0.046 C 
ATOM     29  C   UNL     1       0.722   0.645  -4.944  0.00  0.00    +0.012 C 
BRANCH  28  30
ATOM     30  C   UNL     1       2.685  -0.663  -3.922  0.00  0.00    +0.168 C 
BRANCH  30  32
ATOM     31  N   UNL     1       3.659   0.855  -2.240  0.00  0.00    -0.254 NA
ATOM     32  C   UNL     1       3.347  -0.426  -2.568  0.00  0.00    +0.070 A 
ATOM     33  C   UNL     1       3.485  -1.472  -1.653  0.00  0.00    +0.029 A 
ATOM     34  C   UNL     1       4.001  -1.216  -0.385  0.00  0.00    +0.049 A 
ATOM     35  C   UNL     1       4.145   1.079  -0.994  0.00  0.00    +0.156 A 
ATOM     36  C   UNL     1       4.324   0.084  -0.045  0.00  0.00    +0.135 A 
BRANCH  36  37
ATOM     37  O   UNL     1       4.787   0.326   1.212  0.00  0.00    -0.505 OA
ATOM     38  H   UNL     1       5.486   0.999   1.168  0.00  0.00    +0.292 HD
ENDBRANCH  36  37
ENDBRANCH  30  32
BRANCH  30  39
ATOM     39  O   UNL     1       3.027  -2.001  -4.329  0.00  0.00    -0.385 OA
ATOM     40  H   UNL     1       3.999  -2.058  -4.240  0.00  0.00    +0.210 HD
ENDBRANCH  30  39
ENDBRANCH  28  30
ENDBRANCH  24  28
ENDBRANCH  22  24
ENDBRANCH   1  21
BRANCH   1  42
ATOM     41  OXT UNL     1      -3.144  -4.138  -2.003  0.00  0.00    -0.249 OA
ATOM     42  C   UNL     1      -2.735  -3.507  -1.035  0.00  0.00    +0.328 C 
BRANCH  42  43
ATOM     43  O   UNL     1      -3.399  -3.485   0.147  0.00  0.00    -0.479 OA
ATOM     44  H   UNL     1      -3.603  -2.573   0.462  0.00  0.00    +0.295 HD
ENDBRANCH  42  43
ENDBRANCH   1  42
TORSDOF 14
ENDMDL
