MODEL 1
REMARK VINA RESULT:    -8.251      0.000      0.000
REMARK INTER + INTRA:         -15.241
REMARK INTER:                 -13.557
REMARK INTRA:                  -1.685
REMARK UNBOUND:                -1.685
REMARK  Name = 
REMARK  22 active torsions:
REMARK  status: ('A' for Active; 'I' for Inactive)
REMARK    1  A    between atoms: C_1  and  C_2
REMARK    2  A    between atoms: C_2  and  C_3
REMARK    3  A    between atoms: C_2  and  C_6
REMARK    4  A    between atoms: C_3  and  C_4
REMARK    5  A    between atoms: C_3  and  C_5
REMARK    6  A    between atoms: C_6  and  C_50
REMARK    7  A    between atoms: C_9  and  C_49
REMARK    8  A    between atoms: C_14  and  C_48
REMARK    9  A    between atoms: C_17  and  O_47
REMARK   10  A    between atoms: C_22  and  C_27
REMARK   11  A    between atoms: C_23  and  C_24
REMARK   12  A    between atoms: C_24  and  O_26
REMARK   13  A    between atoms: C_29  and  O_43
REMARK   14  A    between atoms: C_30  and  O_31
REMARK   15  A    between atoms: O_31  and  C_32
REMARK   16  A    between atoms: C_33  and  O_42
REMARK   17  A    between atoms: C_34  and  O_41
REMARK   18  A    between atoms: C_35  and  O_40
REMARK   19  A    between atoms: C_36  and  C_38
REMARK   20  A    between atoms: C_38  and  O_39
REMARK   21  A    between atoms: O_43  and  C_44
REMARK   22  A    between atoms: C_44  and  C_46
REMARK                            x       y       z     vdW  Elec       q    Type
REMARK                         _______ _______ _______ _____ _____    ______ ____
ROOT
ATOM      1  C   UNL     1      -6.872   7.389  -9.261  0.00  0.00    -0.016 C 
ATOM      2  C   UNL     1      -7.549   6.109  -8.657  0.00  0.00    +0.008 C 
ATOM      3  C   UNL     1      -6.728   5.038  -7.987  0.00  0.00    +0.008 C 
ATOM      4  C   UNL     1      -5.456   5.522  -7.272  0.00  0.00    -0.019 C 
ATOM      5  C   UNL     1      -5.385   4.953  -5.828  0.00  0.00    +0.022 C 
ATOM      6  C   UNL     1      -5.806   3.495  -5.617  0.00  0.00    +0.009 C 
ATOM      7  C   UNL     1      -5.730   3.248  -4.132  0.00  0.00    +0.006 C 
ATOM      8  C   UNL     1      -4.298   3.376  -3.609  0.00  0.00    +0.015 C 
ATOM      9  C   UNL     1      -3.617   2.053  -3.250  0.00  0.00    +0.025 C 
ATOM     10  C   UNL     1      -3.098   1.341  -4.508  0.00  0.00    +0.172 C 
ATOM     11  O   UNL     1      -2.039   2.093  -5.071  0.00  0.00    -0.350 OA
ATOM     12  C   UNL     1      -2.497   3.340  -5.548  0.00  0.00    +0.257 C 
ATOM     13  C   UNL     1      -3.295   4.200  -4.487  0.00  0.00    +0.050 C 
ATOM     14  C   UNL     1      -4.032   5.299  -5.224  0.00  0.00    -0.059 C 
ATOM     15  C   UNL     1      -3.441   6.473  -5.520  0.00  0.00    -0.026 C 
ATOM     16  C   UNL     1      -3.987   7.467  -6.484  0.00  0.00    +0.035 C 
ATOM     17  C   UNL     1      -5.383   7.120  -7.097  0.00  0.00    -0.009 C 
ATOM     18  C   UNL     1      -5.574   7.858  -8.477  0.00  0.00    +0.110 C 
ATOM     19  C   UNL     1      -6.439   7.681  -6.088  0.00  0.00    +0.013 C 
ATOM     20  C   UNL     1      -2.310   4.796  -3.470  0.00  0.00    +0.063 C 
ATOM     21  C   UNL     1      -1.634   3.738  -2.624  0.00  0.00    +0.207 C 
ATOM     22  C   UNL     1      -2.462   2.451  -2.298  0.00  0.00    +0.170 C 
ATOM     23  C   UNL     1      -4.561   1.071  -2.521  0.00  0.00    +0.016 C 
ATOM     24  C   UNL     1      -4.268   4.903  -8.084  0.00  0.00    +0.012 C 
ATOM     25  C   UNL     1      -8.057   8.416  -9.147  0.00  0.00    +0.012 C 
ENDROOT
BRANCH   1  27
ATOM     26  C   UNL     1      -7.748   6.839 -11.725  0.00  0.00    +0.008 C 
ATOM     27  C   UNL     1      -6.531   7.090 -10.814  0.00  0.00    -0.005 C 
BRANCH  27  28
ATOM     28  C   UNL     1      -5.448   6.000 -11.128  0.00  0.00    -0.014 C 
ATOM     29  C   UNL     1      -5.775   4.975 -12.230  0.00  0.00    +0.007 C 
ATOM     30  C   UNL     1      -4.121   6.664 -11.531  0.00  0.00    +0.007 C 
ENDBRANCH  27  28
ENDBRANCH   1  27
BRANCH  18  31
ATOM     31  C   UNL     1      -5.251   9.399  -8.340  0.00  0.00    +0.309 C 
ATOM     32  O   UNL     1      -5.869  10.174  -7.610  0.00  0.00    -0.251 OA
BRANCH  31  33
ATOM     33  O   UNL     1      -4.180   9.886  -8.982  0.00  0.00    -0.480 OA
ATOM     34  H   UNL     1      -3.319   9.563  -8.703  0.00  0.00    +0.295 HD
ENDBRANCH  31  33
ENDBRANCH  18  31
BRANCH  12  35
ATOM     35  O   UNL     1      -1.321   4.006  -5.983  0.00  0.00    -0.366 OA
ATOM     36  H   UNL     1      -1.592   4.944  -5.997  0.00  0.00    +0.213 HD
ENDBRANCH  12  35
BRANCH  22  37
ATOM     37  O   UNL     1      -1.624   1.301  -2.206  0.00  0.00    -0.341 OA
BRANCH  37  38
ATOM     38  C   UNL     1      -0.732   1.282  -1.111  0.00  0.00    +0.282 C 
ATOM     39  C   UNL     1      -0.640  -0.137  -0.536  0.00  0.00    +0.201 C 
ATOM     40  C   UNL     1       0.773  -0.408  -0.010  0.00  0.00    +0.179 C 
ATOM     41  C   UNL     1       1.452   0.884   0.508  0.00  0.00    +0.177 C 
ATOM     42  C   UNL     1       1.341   2.075  -0.471  0.00  0.00    +0.178 C 
ATOM     43  O   UNL     1       0.518   1.738  -1.597  0.00  0.00    -0.341 OA
BRANCH  41  44
ATOM     44  O   UNL     1       0.793   1.304   1.723  0.00  0.00    -0.386 OA
ATOM     45  H   UNL     1       0.262   2.100   1.531  0.00  0.00    +0.210 HD
ENDBRANCH  41  44
BRANCH  40  46
ATOM     46  O   UNL     1       1.570  -1.046  -1.009  0.00  0.00    -0.386 OA
ATOM     47  H   UNL     1       1.891  -1.882  -0.622  0.00  0.00    +0.210 HD
ENDBRANCH  40  46
BRANCH  39  48
ATOM     48  O   UNL     1      -1.564  -0.362   0.561  0.00  0.00    -0.384 OA
ATOM     49  H   UNL     1      -2.239  -0.991   0.279  0.00  0.00    +0.210 HD
ENDBRANCH  39  48
BRANCH  42  50
ATOM     50  C   UNL     1       2.673   2.572  -1.027  0.00  0.00    +0.190 C 
BRANCH  50  51
ATOM     51  O   UNL     1       2.906   3.908  -0.562  0.00  0.00    -0.392 OA
ATOM     52  H   UNL     1       2.209   4.455  -0.980  0.00  0.00    +0.210 HD
ENDBRANCH  50  51
ENDBRANCH  42  50
ENDBRANCH  37  38
ENDBRANCH  22  37
BRANCH  21  53
ATOM     53  O   UNL     1      -1.375   4.376  -1.327  0.00  0.00    -0.459 OA
BRANCH  53  54
ATOM     54  C   UNL     1      -0.264   5.149  -1.209  0.00  0.00    +0.304 C 
ATOM     55  O   UNL     1       0.605   5.272  -2.061  0.00  0.00    -0.251 OA
ATOM     56  C   UNL     1      -0.279   5.891   0.097  0.00  0.00    +0.136 C 
ENDBRANCH  53  54
ENDBRANCH  21  53
TORSDOF 14
ENDMDL
MODEL 2
REMARK VINA RESULT:    -7.207      3.817     10.446
REMARK INTER + INTRA:         -13.526
REMARK INTER:                 -11.647
REMARK INTRA:                  -1.879
REMARK UNBOUND:                -1.685
REMARK  Name = 
REMARK  22 active torsions:
REMARK  status: ('A' for Active; 'I' for Inactive)
REMARK    1  A    between atoms: C_1  and  C_2
REMARK    2  A    between atoms: C_2  and  C_3
REMARK    3  A    between atoms: C_2  and  C_6
REMARK    4  A    between atoms: C_3  and  C_4
REMARK    5  A    between atoms: C_3  and  C_5
REMARK    6  A    between atoms: C_6  and  C_50
REMARK    7  A    between atoms: C_9  and  C_49
REMARK    8  A    between atoms: C_14  and  C_48
REMARK    9  A    between atoms: C_17  and  O_47
REMARK   10  A    between atoms: C_22  and  C_27
REMARK   11  A    between atoms: C_23  and  C_24
REMARK   12  A    between atoms: C_24  and  O_26
REMARK   13  A    between atoms: C_29  and  O_43
REMARK   14  A    between atoms: C_30  and  O_31
REMARK   15  A    between atoms: O_31  and  C_32
REMARK   16  A    between atoms: C_33  and  O_42
REMARK   17  A    between atoms: C_34  and  O_41
REMARK   18  A    between atoms: C_35  and  O_40
REMARK   19  A    between atoms: C_36  and  C_38
REMARK   20  A    between atoms: C_38  and  O_39
REMARK   21  A    between atoms: O_43  and  C_44
REMARK   22  A    between atoms: C_44  and  C_46
REMARK                            x       y       z     vdW  Elec       q    Type
REMARK                         _______ _______ _______ _____ _____    ______ ____
ROOT
ATOM      1  C   UNL     1      -7.320   4.162  -3.002  0.00  0.00    -0.016 C 
ATOM      2  C   UNL     1      -8.473   4.817  -3.840  0.00  0.00    +0.008 C 
ATOM      3  C   UNL     1      -8.176   5.846  -4.900  0.00  0.00    +0.008 C 
ATOM      4  C   UNL     1      -6.830   5.689  -5.624  0.00  0.00    -0.019 C 
ATOM      5  C   UNL     1      -7.022   5.748  -7.165  0.00  0.00    +0.022 C 
ATOM      6  C   UNL     1      -8.010   6.780  -7.719  0.00  0.00    +0.009 C 
ATOM      7  C   UNL     1      -8.066   6.549  -9.207  0.00  0.00    +0.006 C 
ATOM      8  C   UNL     1      -6.717   6.823  -9.874  0.00  0.00    +0.015 C 
ATOM      9  C   UNL     1      -6.647   8.116 -10.690  0.00  0.00    +0.025 C 
ATOM     10  C   UNL     1      -6.446   9.334  -9.776  0.00  0.00    +0.172 C 
ATOM     11  O   UNL     1      -5.163   9.271  -9.183  0.00  0.00    -0.350 OA
ATOM     12  C   UNL     1      -5.060   8.168  -8.309  0.00  0.00    +0.257 C 
ATOM     13  C   UNL     1      -5.449   6.777  -8.953  0.00  0.00    +0.050 C 
ATOM     14  C   UNL     1      -5.656   5.777  -7.835  0.00  0.00    -0.059 C 
ATOM     15  C   UNL     1      -4.630   5.083  -7.306  0.00  0.00    -0.026 C 
ATOM     16  C   UNL     1      -4.703   4.320  -6.030  0.00  0.00    +0.035 C 
ATOM     17  C   UNL     1      -6.108   4.278  -5.345  0.00  0.00    -0.009 C 
ATOM     18  C   UNL     1      -5.956   4.006  -3.799  0.00  0.00    +0.110 C 
ATOM     19  C   UNL     1      -6.856   3.063  -5.988  0.00  0.00    +0.013 C 
ATOM     20  C   UNL     1      -4.322   6.316  -9.890  0.00  0.00    +0.063 C 
ATOM     21  C   UNL     1      -4.155   7.222 -11.092  0.00  0.00    +0.207 C 
ATOM     22  C   UNL     1      -5.445   7.913 -11.647  0.00  0.00    +0.170 C 
ATOM     23  C   UNL     1      -7.923   8.369 -11.524  0.00  0.00    +0.016 C 
ATOM     24  C   UNL     1      -5.989   6.943  -5.204  0.00  0.00    +0.012 C 
ATOM     25  C   UNL     1      -7.978   2.780  -2.644  0.00  0.00    +0.012 C 
ENDROOT
BRANCH   1  27
ATOM     26  C   UNL     1      -8.263   5.004  -0.647  0.00  0.00    +0.008 C 
ATOM     27  C   UNL     1      -7.106   5.049  -1.665  0.00  0.00    -0.005 C 
BRANCH  27  28
ATOM     28  C   UNL     1      -6.663   6.543  -1.841  0.00  0.00    -0.014 C 
ATOM     29  C   UNL     1      -7.227   7.570  -0.842  0.00  0.00    +0.007 C 
ATOM     30  C   UNL     1      -5.132   6.659  -1.768  0.00  0.00    +0.007 C 
ENDBRANCH  27  28
ENDBRANCH   1  27
BRANCH  18  31
ATOM     31  C   UNL     1      -5.030   2.753  -3.537  0.00  0.00    +0.309 C 
ATOM     32  O   UNL     1      -5.242   1.628  -3.990  0.00  0.00    -0.251 OA
BRANCH  31  33
ATOM     33  O   UNL     1      -3.888   2.934  -2.859  0.00  0.00    -0.480 OA
ATOM     34  H   UNL     1      -3.852   2.588  -1.963  0.00  0.00    +0.295 HD
ENDBRANCH  31  33
ENDBRANCH  18  31
BRANCH  12  35
ATOM     35  O   UNL     1      -3.706   8.183  -7.878  0.00  0.00    -0.366 OA
ATOM     36  H   UNL     1      -3.226   7.820  -8.647  0.00  0.00    +0.213 HD
ENDBRANCH  12  35
BRANCH  22  37
ATOM     37  O   UNL     1      -5.157   9.202 -12.184  0.00  0.00    -0.341 OA
BRANCH  37  38
ATOM     38  C   UNL     1      -3.786   9.513 -12.322  0.00  0.00    +0.282 C 
ATOM     39  C   UNL     1      -3.560  10.317 -13.608  0.00  0.00    +0.201 C 
ATOM     40  C   UNL     1      -2.426  11.328 -13.412  0.00  0.00    +0.179 C 
ATOM     41  C   UNL     1      -1.370  10.819 -12.399  0.00  0.00    +0.177 C 
ATOM     42  C   UNL     1      -1.984  10.270 -11.091  0.00  0.00    +0.178 C 
ATOM     43  O   UNL     1      -3.417  10.246 -11.167  0.00  0.00    -0.341 OA
BRANCH  41  44
ATOM     44  O   UNL     1      -0.645   9.719 -12.992  0.00  0.00    -0.386 OA
ATOM     45  H   UNL     1      -0.108   9.290 -12.299  0.00  0.00    +0.210 HD
ENDBRANCH  41  44
BRANCH  40  46
ATOM     46  O   UNL     1      -2.945  12.600 -13.022  0.00  0.00    -0.386 OA
ATOM     47  H   UNL     1      -2.181  13.152 -12.771  0.00  0.00    +0.210 HD
ENDBRANCH  40  46
BRANCH  39  48
ATOM     48  O   UNL     1      -3.207   9.481 -14.741  0.00  0.00    -0.384 OA
ATOM     49  H   UNL     1      -2.306   9.691 -15.018  0.00  0.00    +0.210 HD
ENDBRANCH  39  48
BRANCH  42  50
ATOM     50  C   UNL     1      -1.619  11.056  -9.834  0.00  0.00    +0.190 C 
BRANCH  50  51
ATOM     51  O   UNL     1      -2.497  10.669  -8.769  0.00  0.00    -0.392 OA
ATOM     52  H   UNL     1      -1.916  10.299  -8.072  0.00  0.00    +0.210 HD
ENDBRANCH  50  51
ENDBRANCH  42  50
ENDBRANCH  37  38
ENDBRANCH  22  37
BRANCH  21  53
ATOM     53  O   UNL     1      -3.678   6.355 -12.177  0.00  0.00    -0.459 OA
BRANCH  53  54
ATOM     54  C   UNL     1      -2.387   6.493 -12.578  0.00  0.00    +0.304 C 
ATOM     55  O   UNL     1      -1.501   7.036 -11.934  0.00  0.00    -0.251 OA
ATOM     56  C   UNL     1      -2.179   5.823 -13.906  0.00  0.00    +0.136 C 
ENDBRANCH  53  54
ENDBRANCH  21  53
TORSDOF 14
ENDMDL
MODEL 3
REMARK VINA RESULT:    -7.115      1.452      2.226
REMARK INTER + INTRA:         -13.376
REMARK INTER:                 -13.415
REMARK INTRA:                   0.039
REMARK UNBOUND:                -1.685
REMARK  Name = 
REMARK  22 active torsions:
REMARK  status: ('A' for Active; 'I' for Inactive)
REMARK    1  A    between atoms: C_1  and  C_2
REMARK    2  A    between atoms: C_2  and  C_3
REMARK    3  A    between atoms: C_2  and  C_6
REMARK    4  A    between atoms: C_3  and  C_4
REMARK    5  A    between atoms: C_3  and  C_5
REMARK    6  A    between atoms: C_6  and  C_50
REMARK    7  A    between atoms: C_9  and  C_49
REMARK    8  A    between atoms: C_14  and  C_48
REMARK    9  A    between atoms: C_17  and  O_47
REMARK   10  A    between atoms: C_22  and  C_27
REMARK   11  A    between atoms: C_23  and  C_24
REMARK   12  A    between atoms: C_24  and  O_26
REMARK   13  A    between atoms: C_29  and  O_43
REMARK   14  A    between atoms: C_30  and  O_31
REMARK   15  A    between atoms: O_31  and  C_32
REMARK   16  A    between atoms: C_33  and  O_42
REMARK   17  A    between atoms: C_34  and  O_41
REMARK   18  A    between atoms: C_35  and  O_40
REMARK   19  A    between atoms: C_36  and  C_38
REMARK   20  A    between atoms: C_38  and  O_39
REMARK   21  A    between atoms: O_43  and  C_44
REMARK   22  A    between atoms: C_44  and  C_46
REMARK                            x       y       z     vdW  Elec       q    Type
REMARK                         _______ _______ _______ _____ _____    ______ ____
ROOT
ATOM      1  C   UNL     1      -6.712   5.999  -7.851  0.00  0.00    -0.016 C 
ATOM      2  C   UNL     1      -7.159   4.782  -6.967  0.00  0.00    +0.008 C 
ATOM      3  C   UNL     1      -6.146   3.933  -6.245  0.00  0.00    +0.008 C 
ATOM      4  C   UNL     1      -4.871   4.658  -5.787  0.00  0.00    -0.019 C 
ATOM      5  C   UNL     1      -4.572   4.359  -4.292  0.00  0.00    +0.022 C 
ATOM      6  C   UNL     1      -4.790   2.926  -3.797  0.00  0.00    +0.009 C 
ATOM      7  C   UNL     1      -4.521   2.950  -2.314  0.00  0.00    +0.006 C 
ATOM      8  C   UNL     1      -3.066   3.310  -2.008  0.00  0.00    +0.015 C 
ATOM      9  C   UNL     1      -2.195   2.144  -1.532  0.00  0.00    +0.025 C 
ATOM     10  C   UNL     1      -1.737   1.279  -2.715  0.00  0.00    +0.172 C 
ATOM     11  O   UNL     1      -0.844   2.023  -3.524  0.00  0.00    -0.350 OA
ATOM     12  C   UNL     1      -1.499   3.116  -4.132  0.00  0.00    +0.257 C 
ATOM     13  C   UNL     1      -2.271   4.064  -3.130  0.00  0.00    +0.050 C 
ATOM     14  C   UNL     1      -3.212   4.938  -3.932  0.00  0.00    -0.059 C 
ATOM     15  C   UNL     1      -2.803   6.096  -4.487  0.00  0.00    -0.026 C 
ATOM     16  C   UNL     1      -3.567   6.847  -5.520  0.00  0.00    +0.035 C 
ATOM     17  C   UNL     1      -4.971   6.261  -5.883  0.00  0.00    -0.009 C 
ATOM     18  C   UNL     1      -5.400   6.725  -7.328  0.00  0.00    +0.110 C 
ATOM     19  C   UNL     1      -5.969   6.881  -4.850  0.00  0.00    +0.013 C 
ATOM     20  C   UNL     1      -1.259   4.923  -2.357  0.00  0.00    +0.063 C 
ATOM     21  C   UNL     1      -0.371   4.102  -1.446  0.00  0.00    +0.207 C 
ATOM     22  C   UNL     1      -0.998   2.815  -0.814  0.00  0.00    +0.170 C 
ATOM     23  C   UNL     1      -2.928   1.215  -0.538  0.00  0.00    +0.016 C 
ATOM     24  C   UNL     1      -3.713   4.028  -6.636  0.00  0.00    +0.012 C 
ATOM     25  C   UNL     1      -7.991   6.907  -7.752  0.00  0.00    +0.012 C 
ENDROOT
BRANCH   1  27
ATOM     26  C   UNL     1      -5.585   4.247  -9.525  0.00  0.00    +0.008 C 
ATOM     27  C   UNL     1      -6.510   5.469  -9.367  0.00  0.00    -0.005 C 
BRANCH  27  28
ATOM     28  C   UNL     1      -6.128   6.522 -10.465  0.00  0.00    -0.014 C 
ATOM     29  C   UNL     1      -5.000   6.144 -11.443  0.00  0.00    +0.007 C 
ATOM     30  C   UNL     1      -7.354   6.867 -11.326  0.00  0.00    +0.007 C 
ENDBRANCH  27  28
ENDBRANCH   1  27
BRANCH  18  31
ATOM     31  C   UNL     1      -5.252   8.290  -7.484  0.00  0.00    +0.309 C 
ATOM     32  O   UNL     1      -5.890   9.115  -6.829  0.00  0.00    -0.251 OA
BRANCH  31  33
ATOM     33  O   UNL     1      -4.308   8.763  -8.309  0.00  0.00    -0.480 OA
ATOM     34  H   UNL     1      -3.461   8.996  -7.918  0.00  0.00    +0.295 HD
ENDBRANCH  31  33
ENDBRANCH  18  31
BRANCH  12  35
ATOM     35  O   UNL     1      -0.466   3.810  -4.817  0.00  0.00    -0.366 OA
ATOM     36  H   UNL     1       0.278   3.180  -4.791  0.00  0.00    +0.213 HD
ENDBRANCH  12  35
BRANCH  22  37
ATOM     37  O   UNL     1      -0.023   1.788  -0.646  0.00  0.00    -0.341 OA
BRANCH  37  38
ATOM     38  C   UNL     1       1.240   2.215  -0.179  0.00  0.00    +0.282 C 
ATOM     39  C   UNL     1       1.892   1.105   0.654  0.00  0.00    +0.201 C 
ATOM     40  C   UNL     1       3.413   1.123   0.469  0.00  0.00    +0.179 C 
ATOM     41  C   UNL     1       3.941   2.552   0.192  0.00  0.00    +0.177 C 
ATOM     42  C   UNL     1       3.146   3.304  -0.900  0.00  0.00    +0.178 C 
ATOM     43  O   UNL     1       2.009   2.538  -1.325  0.00  0.00    -0.341 OA
BRANCH  41  44
ATOM     44  O   UNL     1       3.811   3.341   1.395  0.00  0.00    -0.386 OA
ATOM     45  H   UNL     1       4.496   4.037   1.387  0.00  0.00    +0.210 HD
ENDBRANCH  41  44
BRANCH  40  46
ATOM     46  O   UNL     1       3.807   0.216  -0.561  0.00  0.00    -0.386 OA
ATOM     47  H   UNL     1       3.079  -0.425  -0.666  0.00  0.00    +0.210 HD
ENDBRANCH  40  46
BRANCH  39  48
ATOM     48  O   UNL     1       1.624   1.236   2.075  0.00  0.00    -0.384 OA
ATOM     49  H   UNL     1       1.805   0.392   2.508  0.00  0.00    +0.210 HD
ENDBRANCH  39  48
BRANCH  42  50
ATOM     50  C   UNL     1       3.946   3.644  -2.154  0.00  0.00    +0.190 C 
BRANCH  50  51
ATOM     51  O   UNL     1       5.333   3.371  -1.914  0.00  0.00    -0.392 OA
ATOM     52  H   UNL     1       5.347   2.703  -1.197  0.00  0.00    +0.210 HD
ENDBRANCH  50  51
ENDBRANCH  42  50
ENDBRANCH  37  38
ENDBRANCH  22  37
BRANCH  21  53
ATOM     53  O   UNL     1      -0.049   4.978  -0.313  0.00  0.00    -0.459 OA
BRANCH  53  54
ATOM     54  C   UNL     1       1.111   5.684  -0.366  0.00  0.00    +0.304 C 
ATOM     55  O   UNL     1       1.951   5.730   0.522  0.00  0.00    -0.251 OA
ATOM     56  C   UNL     1       1.254   6.356  -1.701  0.00  0.00    +0.136 C 
ENDBRANCH  53  54
ENDBRANCH  21  53
TORSDOF 14
ENDMDL
MODEL 4
REMARK VINA RESULT:    -6.742      3.384      5.740
REMARK INTER + INTRA:         -12.762
REMARK INTER:                 -11.314
REMARK INTRA:                  -1.448
REMARK UNBOUND:                -1.685
REMARK  Name = 
REMARK  22 active torsions:
REMARK  status: ('A' for Active; 'I' for Inactive)
REMARK    1  A    between atoms: C_1  and  C_2
REMARK    2  A    between atoms: C_2  and  C_3
REMARK    3  A    between atoms: C_2  and  C_6
REMARK    4  A    between atoms: C_3  and  C_4
REMARK    5  A    between atoms: C_3  and  C_5
REMARK    6  A    between atoms: C_6  and  C_50
REMARK    7  A    between atoms: C_9  and  C_49
REMARK    8  A    between atoms: C_14  and  C_48
REMARK    9  A    between atoms: C_17  and  O_47
REMARK   10  A    between atoms: C_22  and  C_27
REMARK   11  A    between atoms: C_23  and  C_24
REMARK   12  A    between atoms: C_24  and  O_26
REMARK   13  A    between atoms: C_29  and  O_43
REMARK   14  A    between atoms: C_30  and  O_31
REMARK   15  A    between atoms: O_31  and  C_32
REMARK   16  A    between atoms: C_33  and  O_42
REMARK   17  A    between atoms: C_34  and  O_41
REMARK   18  A    between atoms: C_35  and  O_40
REMARK   19  A    between atoms: C_36  and  C_38
REMARK   20  A    between atoms: C_38  and  O_39
REMARK   21  A    between atoms: O_43  and  C_44
REMARK   22  A    between atoms: C_44  and  C_46
REMARK                            x       y       z     vdW  Elec       q    Type
REMARK                         _______ _______ _______ _____ _____    ______ ____
ROOT
ATOM      1  C   UNL     1      -7.217   2.047  -5.505  0.00  0.00    -0.016 C 
ATOM      2  C   UNL     1      -7.328   3.026  -4.283  0.00  0.00    +0.008 C 
ATOM      3  C   UNL     1      -6.205   3.155  -3.287  0.00  0.00    +0.008 C 
ATOM      4  C   UNL     1      -4.789   2.941  -3.846  0.00  0.00    -0.019 C 
ATOM      5  C   UNL     1      -3.846   4.099  -3.417  0.00  0.00    +0.022 C 
ATOM      6  C   UNL     1      -3.971   4.623  -1.983  0.00  0.00    +0.009 C 
ATOM      7  C   UNL     1      -3.020   5.788  -1.879  0.00  0.00    +0.006 C 
ATOM      8  C   UNL     1      -1.566   5.351  -2.067  0.00  0.00    +0.015 C 
ATOM      9  C   UNL     1      -0.724   5.332  -0.789  0.00  0.00    +0.025 C 
ATOM     10  C   UNL     1      -1.002   4.066   0.036  0.00  0.00    +0.172 C 
ATOM     11  O   UNL     1      -0.527   2.933  -0.666  0.00  0.00    -0.350 OA
ATOM     12  C   UNL     1      -1.255   2.731  -1.859  0.00  0.00    +0.257 C 
ATOM     13  C   UNL     1      -1.326   3.992  -2.811  0.00  0.00    +0.050 C 
ATOM     14  C   UNL     1      -2.422   3.757  -3.829  0.00  0.00    -0.059 C 
ATOM     15  C   UNL     1      -2.193   3.084  -4.974  0.00  0.00    -0.026 C 
ATOM     16  C   UNL     1      -3.262   2.562  -5.868  0.00  0.00    +0.035 C 
ATOM     17  C   UNL     1      -4.727   2.922  -5.454  0.00  0.00    -0.009 C 
ATOM     18  C   UNL     1      -5.739   1.874  -6.056  0.00  0.00    +0.110 C 
ATOM     19  C   UNL     1      -5.018   4.316  -6.101  0.00  0.00    +0.013 C 
ATOM     20  C   UNL     1       0.030   4.182  -3.508  0.00  0.00    +0.063 C 
ATOM     21  C   UNL     1       1.139   4.538  -2.540  0.00  0.00    +0.207 C 
ATOM     22  C   UNL     1       0.743   5.383  -1.284  0.00  0.00    +0.170 C 
ATOM     23  C   UNL     1      -0.994   6.547   0.125  0.00  0.00    +0.016 C 
ATOM     24  C   UNL     1      -4.271   1.630  -3.161  0.00  0.00    +0.012 C 
ATOM     25  C   UNL     1      -8.169   2.765  -6.530  0.00  0.00    +0.012 C 
ENDROOT
BRANCH   1  27
ATOM     26  C   UNL     1      -9.365   0.597  -4.850  0.00  0.00    +0.008 C 
ATOM     27  C   UNL     1      -7.838   0.620  -5.062  0.00  0.00    -0.005 C 
BRANCH  27  28
ATOM     28  C   UNL     1      -7.164  -0.130  -3.861  0.00  0.00    -0.014 C 
ATOM     29  C   UNL     1      -8.094  -0.813  -2.842  0.00  0.00    +0.007 C 
ATOM     30  C   UNL     1      -6.209  -1.218  -4.378  0.00  0.00    +0.007 C 
ENDBRANCH  27  28
ENDBRANCH   1  27
BRANCH  18  31
ATOM     31  C   UNL     1      -5.494   1.680  -7.605  0.00  0.00    +0.309 C 
ATOM     32  O   UNL     1      -5.613   2.575  -8.442  0.00  0.00    -0.251 OA
BRANCH  31  33
ATOM     33  O   UNL     1      -5.036   0.497  -8.036  0.00  0.00    -0.480 OA
ATOM     34  H   UNL     1      -4.326   0.092  -7.531  0.00  0.00    +0.295 HD
ENDBRANCH  31  33
ENDBRANCH  18  31
BRANCH  12  35
ATOM     35  O   UNL     1      -0.604   1.637  -2.489  0.00  0.00    -0.366 OA
ATOM     36  H   UNL     1      -1.336   1.015  -2.664  0.00  0.00    +0.213 HD
ENDBRANCH  12  35
BRANCH  22  37
ATOM     37  O   UNL     1       1.544   5.044  -0.154  0.00  0.00    -0.341 OA
BRANCH  37  38
ATOM     38  C   UNL     1       2.679   4.248  -0.425  0.00  0.00    +0.282 C 
ATOM     39  C   UNL     1       3.823   4.628   0.521  0.00  0.00    +0.201 C 
ATOM     40  C   UNL     1       4.663   3.393   0.865  0.00  0.00    +0.179 C 
ATOM     41  C   UNL     1       4.675   2.365  -0.293  0.00  0.00    +0.177 C 
ATOM     42  C   UNL     1       3.271   2.058  -0.862  0.00  0.00    +0.178 C 
ATOM     43  O   UNL     1       2.278   2.899  -0.257  0.00  0.00    -0.341 OA
BRANCH  41  44
ATOM     44  O   UNL     1       5.440   2.908  -1.392  0.00  0.00    -0.386 OA
ATOM     45  H   UNL     1       6.280   2.415  -1.461  0.00  0.00    +0.210 HD
ENDBRANCH  41  44
BRANCH  40  46
ATOM     46  O   UNL     1       4.208   2.797   2.081  0.00  0.00    -0.386 OA
ATOM     47  H   UNL     1       3.370   2.342   1.876  0.00  0.00    +0.210 HD
ENDBRANCH  40  46
BRANCH  39  48
ATOM     48  O   UNL     1       4.719   5.619  -0.047  0.00  0.00    -0.384 OA
ATOM     49  H   UNL     1       5.583   5.214  -0.195  0.00  0.00    +0.210 HD
ENDBRANCH  39  48
BRANCH  42  50
ATOM     50  C   UNL     1       2.806   0.616  -0.673  0.00  0.00    +0.190 C 
BRANCH  50  51
ATOM     51  O   UNL     1       1.430   0.513  -1.061  0.00  0.00    -0.392 OA
ATOM     52  H   UNL     1       1.382  -0.270  -1.649  0.00  0.00    +0.210 HD
ENDBRANCH  50  51
ENDBRANCH  42  50
ENDBRANCH  37  38
ENDBRANCH  22  37
BRANCH  21  53
ATOM     53  O   UNL     1       2.072   5.379  -3.300  0.00  0.00    -0.459 OA
BRANCH  53  54
ATOM     54  C   UNL     1       1.902   6.726  -3.243  0.00  0.00    +0.304 C 
ATOM     55  O   UNL     1       0.906   7.330  -3.618  0.00  0.00    -0.251 OA
ATOM     56  C   UNL     1       3.090   7.375  -2.593  0.00  0.00    +0.136 C 
ENDBRANCH  53  54
ENDBRANCH  21  53
TORSDOF 14
ENDMDL
MODEL 5
REMARK VINA RESULT:    -6.614      2.927     10.386
REMARK INTER + INTRA:         -12.552
REMARK INTER:                 -12.317
REMARK INTRA:                  -0.235
REMARK UNBOUND:                -1.685
REMARK  Name = 
REMARK  22 active torsions:
REMARK  status: ('A' for Active; 'I' for Inactive)
REMARK    1  A    between atoms: C_1  and  C_2
REMARK    2  A    between atoms: C_2  and  C_3
REMARK    3  A    between atoms: C_2  and  C_6
REMARK    4  A    between atoms: C_3  and  C_4
REMARK    5  A    between atoms: C_3  and  C_5
REMARK    6  A    between atoms: C_6  and  C_50
REMARK    7  A    between atoms: C_9  and  C_49
REMARK    8  A    between atoms: C_14  and  C_48
REMARK    9  A    between atoms: C_17  and  O_47
REMARK   10  A    between atoms: C_22  and  C_27
REMARK   11  A    between atoms: C_23  and  C_24
REMARK   12  A    between atoms: C_24  and  O_26
REMARK   13  A    between atoms: C_29  and  O_43
REMARK   14  A    between atoms: C_30  and  O_31
REMARK   15  A    between atoms: O_31  and  C_32
REMARK   16  A    between atoms: C_33  and  O_42
REMARK   17  A    between atoms: C_34  and  O_41
REMARK   18  A    between atoms: C_35  and  O_40
REMARK   19  A    between atoms: C_36  and  C_38
REMARK   20  A    between atoms: C_38  and  O_39
REMARK   21  A    between atoms: O_43  and  C_44
REMARK   22  A    between atoms: C_44  and  C_46
REMARK                            x       y       z     vdW  Elec       q    Type
REMARK                         _______ _______ _______ _____ _____    ______ ____
ROOT
ATOM      1  C   UNL     1      -1.590  -0.918  -1.050  0.00  0.00    -0.016 C 
ATOM      2  C   UNL     1      -1.740   0.516  -0.431  0.00  0.00    +0.008 C 
ATOM      3  C   UNL     1      -1.909   1.729  -1.309  0.00  0.00    +0.008 C 
ATOM      4  C   UNL     1      -2.647   1.493  -2.636  0.00  0.00    -0.019 C 
ATOM      5  C   UNL     1      -3.776   2.543  -2.833  0.00  0.00    +0.022 C 
ATOM      6  C   UNL     1      -3.477   3.992  -2.435  0.00  0.00    +0.009 C 
ATOM      7  C   UNL     1      -4.760   4.756  -2.639  0.00  0.00    +0.006 C 
ATOM      8  C   UNL     1      -5.178   4.777  -4.110  0.00  0.00    +0.015 C 
ATOM      9  C   UNL     1      -4.977   6.118  -4.823  0.00  0.00    +0.025 C 
ATOM     10  C   UNL     1      -3.510   6.309  -5.233  0.00  0.00    +0.172 C 
ATOM     11  O   UNL     1      -3.176   5.370  -6.238  0.00  0.00    -0.350 OA
ATOM     12  C   UNL     1      -3.221   4.051  -5.737  0.00  0.00    +0.257 C 
ATOM     13  C   UNL     1      -4.582   3.659  -5.033  0.00  0.00    +0.050 C 
ATOM     14  C   UNL     1      -4.354   2.393  -4.232  0.00  0.00    -0.059 C 
ATOM     15  C   UNL     1      -4.458   1.172  -4.793  0.00  0.00    -0.026 C 
ATOM     16  C   UNL     1      -3.967  -0.084  -4.164  0.00  0.00    +0.035 C 
ATOM     17  C   UNL     1      -3.383   0.065  -2.721  0.00  0.00    -0.009 C 
ATOM     18  C   UNL     1      -2.384  -1.115  -2.410  0.00  0.00    +0.110 C 
ATOM     19  C   UNL     1      -4.607  -0.058  -1.754  0.00  0.00    +0.013 C 
ATOM     20  C   UNL     1      -5.664   3.438  -6.100  0.00  0.00    +0.063 C 
ATOM     21  C   UNL     1      -6.012   4.707  -6.849  0.00  0.00    +0.207 C 
ATOM     22  C   UNL     1      -5.914   6.052  -6.055  0.00  0.00    +0.170 C 
ATOM     23  C   UNL     1      -5.374   7.327  -3.947  0.00  0.00    +0.016 C 
ATOM     24  C   UNL     1      -1.574   1.738  -3.752  0.00  0.00    +0.012 C 
ATOM     25  C   UNL     1      -2.162  -1.794   0.123  0.00  0.00    +0.012 C 
ENDROOT
BRANCH   1  27
ATOM     26  C   UNL     1       0.370  -2.694  -1.437  0.00  0.00    +0.008 C 
ATOM     27  C   UNL     1      -0.012  -1.211  -1.258  0.00  0.00    -0.005 C 
BRANCH  27  28
ATOM     28  C   UNL     1       0.992  -0.564  -0.242  0.00  0.00    -0.014 C 
ATOM     29  C   UNL     1       2.079  -1.476   0.356  0.00  0.00    +0.007 C 
ATOM     30  C   UNL     1       1.726   0.619  -0.894  0.00  0.00    +0.007 C 
ENDBRANCH  27  28
ENDBRANCH   1  27
BRANCH  18  31
ATOM     31  C   UNL     1      -3.044  -2.512  -2.741  0.00  0.00    +0.309 C 
ATOM     32  O   UNL     1      -3.584  -3.238  -1.905  0.00  0.00    -0.251 OA
BRANCH  31  33
ATOM     33  O   UNL     1      -3.111  -2.900  -4.021  0.00  0.00    -0.480 OA
ATOM     34  H   UNL     1      -2.579  -3.658  -4.277  0.00  0.00    +0.295 HD
ENDBRANCH  31  33
ENDBRANCH  18  31
BRANCH  12  35
ATOM     35  O   UNL     1      -2.966   3.234  -6.871  0.00  0.00    -0.366 OA
ATOM     36  H   UNL     1      -1.998   3.303  -6.979  0.00  0.00    +0.213 HD
ENDBRANCH  12  35
BRANCH  22  37
ATOM     37  O   UNL     1      -5.516   7.129  -6.900  0.00  0.00    -0.341 OA
BRANCH  37  38
ATOM     38  C   UNL     1      -5.771   6.951  -8.278  0.00  0.00    +0.282 C 
ATOM     39  C   UNL     1      -5.936   8.314  -8.960  0.00  0.00    +0.201 C 
ATOM     40  C   UNL     1      -5.392   8.264 -10.391  0.00  0.00    +0.179 C 
ATOM     41  C   UNL     1      -5.542   6.854 -11.014  0.00  0.00    +0.177 C 
ATOM     42  C   UNL     1      -5.050   5.716 -10.091  0.00  0.00    +0.178 C 
ATOM     43  O   UNL     1      -4.674   6.225  -8.803  0.00  0.00    -0.341 OA
BRANCH  41  44
ATOM     44  O   UNL     1      -6.944   6.595 -11.254  0.00  0.00    -0.386 OA
ATOM     45  H   UNL     1      -7.472   7.201 -10.700  0.00  0.00    +0.210 HD
ENDBRANCH  41  44
BRANCH  40  46
ATOM     46  O   UNL     1      -4.034   8.705 -10.430  0.00  0.00    -0.386 OA
ATOM     47  H   UNL     1      -4.052   9.678 -10.359  0.00  0.00    +0.210 HD
ENDBRANCH  40  46
BRANCH  39  48
ATOM     48  O   UNL     1      -7.322   8.743  -9.035  0.00  0.00    -0.384 OA
ATOM     49  H   UNL     1      -7.593   9.083  -8.173  0.00  0.00    +0.210 HD
ENDBRANCH  39  48
BRANCH  42  50
ATOM     50  C   UNL     1      -3.853   4.932 -10.626  0.00  0.00    +0.190 C 
BRANCH  50  51
ATOM     51  O   UNL     1      -2.901   5.851 -11.178  0.00  0.00    -0.392 OA
ATOM     52  H   UNL     1      -3.393   6.687 -11.313  0.00  0.00    +0.210 HD
ENDBRANCH  50  51
ENDBRANCH  42  50
ENDBRANCH  37  38
ENDBRANCH  22  37
BRANCH  21  53
ATOM     53  O   UNL     1      -7.428   4.573  -7.217  0.00  0.00    -0.459 OA
BRANCH  53  54
ATOM     54  C   UNL     1      -8.355   4.714  -6.235  0.00  0.00    +0.304 C 
ATOM     55  O   UNL     1      -9.016   5.722  -6.026  0.00  0.00    -0.251 OA
ATOM     56  C   UNL     1      -8.508   3.430  -5.471  0.00  0.00    +0.136 C 
ENDBRANCH  53  54
ENDBRANCH  21  53
TORSDOF 14
ENDMDL
MODEL 6
REMARK VINA RESULT:    -6.548      2.395     10.063
REMARK INTER + INTRA:         -12.444
REMARK INTER:                 -13.857
REMARK INTRA:                   1.413
REMARK UNBOUND:                -1.685
REMARK  Name = 
REMARK  22 active torsions:
REMARK  status: ('A' for Active; 'I' for Inactive)
REMARK    1  A    between atoms: C_1  and  C_2
REMARK    2  A    between atoms: C_2  and  C_3
REMARK    3  A    between atoms: C_2  and  C_6
REMARK    4  A    between atoms: C_3  and  C_4
REMARK    5  A    between atoms: C_3  and  C_5
REMARK    6  A    between atoms: C_6  and  C_50
REMARK    7  A    between atoms: C_9  and  C_49
REMARK    8  A    between atoms: C_14  and  C_48
REMARK    9  A    between atoms: C_17  and  O_47
REMARK   10  A    between atoms: C_22  and  C_27
REMARK   11  A    between atoms: C_23  and  C_24
REMARK   12  A    between atoms: C_24  and  O_26
REMARK   13  A    between atoms: C_29  and  O_43
REMARK   14  A    between atoms: C_30  and  O_31
REMARK   15  A    between atoms: O_31  and  C_32
REMARK   16  A    between atoms: C_33  and  O_42
REMARK   17  A    between atoms: C_34  and  O_41
REMARK   18  A    between atoms: C_35  and  O_40
REMARK   19  A    between atoms: C_36  and  C_38
REMARK   20  A    between atoms: C_38  and  O_39
REMARK   21  A    between atoms: O_43  and  C_44
REMARK   22  A    between atoms: C_44  and  C_46
REMARK                            x       y       z     vdW  Elec       q    Type
REMARK                         _______ _______ _______ _____ _____    ______ ____
ROOT
ATOM      1  C   UNL     1       0.971   2.230  -0.414  0.00  0.00    -0.016 C 
ATOM      2  C   UNL     1       0.344   3.597   0.036  0.00  0.00    +0.008 C 
ATOM      3  C   UNL     1      -0.536   4.391  -0.893  0.00  0.00    +0.008 C 
ATOM      4  C   UNL     1      -1.369   3.569  -1.890  0.00  0.00    -0.019 C 
ATOM      5  C   UNL     1      -2.858   4.012  -1.861  0.00  0.00    +0.022 C 
ATOM      6  C   UNL     1      -3.151   5.512  -1.760  0.00  0.00    +0.009 C 
ATOM      7  C   UNL     1      -4.649   5.640  -1.656  0.00  0.00    +0.006 C 
ATOM      8  C   UNL     1      -5.350   5.135  -2.918  0.00  0.00    +0.015 C 
ATOM      9  C   UNL     1      -5.929   6.228  -3.821  0.00  0.00    +0.025 C 
ATOM     10  C   UNL     1      -4.831   6.869  -4.682  0.00  0.00    +0.172 C 
ATOM     11  O   UNL     1      -4.349   5.920  -5.614  0.00  0.00    -0.350 OA
ATOM     12  C   UNL     1      -3.692   4.854  -4.962  0.00  0.00    +0.257 C 
ATOM     13  C   UNL     1      -4.542   4.148  -3.830  0.00  0.00    +0.050 C 
ATOM     14  C   UNL     1      -3.605   3.310  -2.986  0.00  0.00    -0.059 C 
ATOM     15  C   UNL     1      -3.280   2.048  -3.329  0.00  0.00    -0.026 C 
ATOM     16  C   UNL     1      -2.156   1.279  -2.727  0.00  0.00    +0.035 C 
ATOM     17  C   UNL     1      -1.394   1.994  -1.563  0.00  0.00    -0.009 C 
ATOM     18  C   UNL     1       0.066   1.412  -1.428  0.00  0.00    +0.110 C 
ATOM     19  C   UNL     1      -2.186   1.644  -0.261  0.00  0.00    +0.013 C 
ATOM     20  C   UNL     1      -5.622   3.268  -4.478  0.00  0.00    +0.063 C 
ATOM     21  C   UNL     1      -6.654   4.075  -5.238  0.00  0.00    +0.207 C 
ATOM     22  C   UNL     1      -6.987   5.502  -4.688  0.00  0.00    +0.170 C 
ATOM     23  C   UNL     1      -6.614   7.361  -3.026  0.00  0.00    +0.016 C 
ATOM     24  C   UNL     1      -0.794   3.931  -3.302  0.00  0.00    +0.012 C 
ATOM     25  C   UNL     1       1.125   1.517   0.979  0.00  0.00    +0.012 C 
ENDROOT
BRANCH   1  27
ATOM     26  C   UNL     1       3.574   1.638  -0.553  0.00  0.00    +0.008 C 
ATOM     27  C   UNL     1       2.425   2.535  -1.056  0.00  0.00    -0.005 C 
BRANCH  27  28
ATOM     28  C   UNL     1       2.927   4.020  -1.061  0.00  0.00    -0.014 C 
ATOM     29  C   UNL     1       4.361   4.284  -0.567  0.00  0.00    +0.007 C 
ATOM     30  C   UNL     1       2.838   4.610  -2.478  0.00  0.00    +0.007 C 
ENDBRANCH  27  28
ENDBRANCH   1  27
BRANCH  18  31
ATOM     31  C   UNL     1       0.038  -0.167  -1.361  0.00  0.00    +0.309 C 
ATOM     32  O   UNL     1      -0.991  -0.842  -1.358  0.00  0.00    -0.251 OA
BRANCH  31  33
ATOM     33  O   UNL     1       1.203  -0.828  -1.405  0.00  0.00    -0.480 OA
ATOM     34  H   UNL     1       1.594  -0.968  -2.271  0.00  0.00    +0.295 HD
ENDBRANCH  31  33
ENDBRANCH  18  31
BRANCH  12  35
ATOM     35  O   UNL     1      -3.361   3.950  -6.006  0.00  0.00    -0.366 OA
ATOM     36  H   UNL     1      -4.230   3.732  -6.393  0.00  0.00    +0.213 HD
ENDBRANCH  12  35
BRANCH  22  37
ATOM     37  O   UNL     1      -7.308   6.406  -5.743  0.00  0.00    -0.341 OA
BRANCH  37  38
ATOM     38  C   UNL     1      -6.448   6.367  -6.863  0.00  0.00    +0.282 C 
ATOM     39  C   UNL     1      -7.030   5.442  -7.938  0.00  0.00    +0.201 C 
ATOM     40  C   UNL     1      -6.685   5.965  -9.336  0.00  0.00    +0.179 C 
ATOM     41  C   UNL     1      -5.333   6.721  -9.349  0.00  0.00    +0.177 C 
ATOM     42  C   UNL     1      -5.196   7.762  -8.214  0.00  0.00    +0.178 C 
ATOM     43  O   UNL     1      -6.321   7.701  -7.324  0.00  0.00    -0.341 OA
BRANCH  41  44
ATOM     44  O   UNL     1      -4.263   5.771  -9.150  0.00  0.00    -0.386 OA
ATOM     45  H   UNL     1      -4.641   4.948  -8.786  0.00  0.00    +0.210 HD
ENDBRANCH  41  44
BRANCH  40  46
ATOM     46  O   UNL     1      -7.740   6.783  -9.843  0.00  0.00    -0.386 OA
ATOM     47  H   UNL     1      -8.541   6.227  -9.866  0.00  0.00    +0.210 HD
ENDBRANCH  40  46
BRANCH  39  48
ATOM     48  O   UNL     1      -6.528   4.083  -7.845  0.00  0.00    -0.384 OA
ATOM     49  H   UNL     1      -5.576   4.088  -8.005  0.00  0.00    +0.210 HD
ENDBRANCH  39  48
BRANCH  42  50
ATOM     50  C   UNL     1      -5.080   9.209  -8.684  0.00  0.00    +0.190 C 
BRANCH  50  51
ATOM     51  O   UNL     1      -6.236   9.543  -9.464  0.00  0.00    -0.392 OA
ATOM     52  H   UNL     1      -6.061  10.438  -9.821  0.00  0.00    +0.210 HD
ENDBRANCH  50  51
ENDBRANCH  42  50
ENDBRANCH  37  38
ENDBRANCH  22  37
BRANCH  21  53
ATOM     53  O   UNL     1      -7.905   3.314  -5.134  0.00  0.00    -0.459 OA
BRANCH  53  54
ATOM     54  C   UNL     1      -7.866   1.986  -5.419  0.00  0.00    +0.304 C 
ATOM     55  O   UNL     1      -7.324   1.488  -6.396  0.00  0.00    -0.251 OA
ATOM     56  C   UNL     1      -8.531   1.197  -4.327  0.00  0.00    +0.136 C 
ENDBRANCH  53  54
ENDBRANCH  21  53
TORSDOF 14
ENDMDL
MODEL 7
REMARK VINA RESULT:    -5.832      2.047      3.077
REMARK INTER + INTRA:         -11.266
REMARK INTER:                 -11.050
REMARK INTRA:                  -0.216
REMARK UNBOUND:                -1.685
REMARK  Name = 
REMARK  22 active torsions:
REMARK  status: ('A' for Active; 'I' for Inactive)
REMARK    1  A    between atoms: C_1  and  C_2
REMARK    2  A    between atoms: C_2  and  C_3
REMARK    3  A    between atoms: C_2  and  C_6
REMARK    4  A    between atoms: C_3  and  C_4
REMARK    5  A    between atoms: C_3  and  C_5
REMARK    6  A    between atoms: C_6  and  C_50
REMARK    7  A    between atoms: C_9  and  C_49
REMARK    8  A    between atoms: C_14  and  C_48
REMARK    9  A    between atoms: C_17  and  O_47
REMARK   10  A    between atoms: C_22  and  C_27
REMARK   11  A    between atoms: C_23  and  C_24
REMARK   12  A    between atoms: C_24  and  O_26
REMARK   13  A    between atoms: C_29  and  O_43
REMARK   14  A    between atoms: C_30  and  O_31
REMARK   15  A    between atoms: O_31  and  C_32
REMARK   16  A    between atoms: C_33  and  O_42
REMARK   17  A    between atoms: C_34  and  O_41
REMARK   18  A    between atoms: C_35  and  O_40
REMARK   19  A    between atoms: C_36  and  C_38
REMARK   20  A    between atoms: C_38  and  O_39
REMARK   21  A    between atoms: O_43  and  C_44
REMARK   22  A    between atoms: C_44  and  C_46
REMARK                            x       y       z     vdW  Elec       q    Type
REMARK                         _______ _______ _______ _____ _____    ______ ____
ROOT
ATOM      1  C   UNL     1      -6.144   8.177 -10.912  0.00  0.00    -0.016 C 
ATOM      2  C   UNL     1      -6.532   6.656 -10.931  0.00  0.00    +0.008 C 
ATOM      3  C   UNL     1      -5.881   5.677  -9.989  0.00  0.00    +0.008 C 
ATOM      4  C   UNL     1      -5.459   6.243  -8.624  0.00  0.00    -0.019 C 
ATOM      5  C   UNL     1      -5.973   5.339  -7.470  0.00  0.00    +0.022 C 
ATOM      6  C   UNL     1      -5.892   3.821  -7.665  0.00  0.00    +0.009 C 
ATOM      7  C   UNL     1      -6.539   3.208  -6.450  0.00  0.00    +0.006 C 
ATOM      8  C   UNL     1      -5.766   3.533  -5.171  0.00  0.00    +0.015 C 
ATOM      9  C   UNL     1      -4.965   2.368  -4.582  0.00  0.00    +0.025 C 
ATOM     10  C   UNL     1      -3.643   2.171  -5.337  0.00  0.00    +0.172 C 
ATOM     11  O   UNL     1      -2.796   3.281  -5.101  0.00  0.00    -0.350 OA
ATOM     12  C   UNL     1      -3.335   4.460  -5.658  0.00  0.00    +0.257 C 
ATOM     13  C   UNL     1      -4.818   4.782  -5.214  0.00  0.00    +0.050 C 
ATOM     14  C   UNL     1      -5.380   5.826  -6.156  0.00  0.00    -0.059 C 
ATOM     15  C   UNL     1      -5.185   7.144  -5.951  0.00  0.00    -0.026 C 
ATOM     16  C   UNL     1      -5.441   8.198  -6.969  0.00  0.00    +0.035 C 
ATOM     17  C   UNL     1      -6.063   7.702  -8.316  0.00  0.00    -0.009 C 
ATOM     18  C   UNL     1      -5.733   8.717  -9.477  0.00  0.00    +0.110 C 
ATOM     19  C   UNL     1      -7.611   7.695  -8.091  0.00  0.00    +0.013 C 
ATOM     20  C   UNL     1      -4.817   5.301  -3.768  0.00  0.00    +0.063 C 
ATOM     21  C   UNL     1      -4.375   4.250  -2.771  0.00  0.00    +0.207 C 
ATOM     22  C   UNL     1      -4.728   2.762  -3.103  0.00  0.00    +0.170 C 
ATOM     23  C   UNL     1      -5.731   1.028  -4.635  0.00  0.00    +0.016 C 
ATOM     24  C   UNL     1      -3.893   6.173  -8.618  0.00  0.00    +0.012 C 
ATOM     25  C   UNL     1      -7.479   8.816 -11.445  0.00  0.00    +0.012 C 
ENDROOT
BRANCH   1  27
ATOM     26  C   UNL     1      -3.804   7.367 -11.918  0.00  0.00    +0.008 C 
ATOM     27  C   UNL     1      -4.946   8.401 -11.977  0.00  0.00    -0.005 C 
BRANCH  27  28
ATOM     28  C   UNL     1      -4.311   9.831 -12.073  0.00  0.00    -0.014 C 
ATOM     29  C   UNL     1      -3.092  10.125 -11.178  0.00  0.00    +0.007 C 
ATOM     30  C   UNL     1      -3.873  10.127 -13.517  0.00  0.00    +0.007 C 
ENDBRANCH  27  28
ENDBRANCH   1  27
BRANCH  18  31
ATOM     31  C   UNL     1      -6.105  10.194  -9.056  0.00  0.00    +0.309 C 
ATOM     32  O   UNL     1      -5.435  10.883  -8.286  0.00  0.00    -0.251 OA
BRANCH  31  33
ATOM     33  O   UNL     1      -7.161  10.778  -9.638  0.00  0.00    -0.480 OA
ATOM     34  H   UNL     1      -7.151  10.843 -10.597  0.00  0.00    +0.295 HD
ENDBRANCH  31  33
ENDBRANCH  18  31
BRANCH  12  35
ATOM     35  O   UNL     1      -2.436   5.484  -5.255  0.00  0.00    -0.366 OA
ATOM     36  H   UNL     1      -1.598   5.002  -5.121  0.00  0.00    +0.213 HD
ENDBRANCH  12  35
BRANCH  22  37
ATOM     37  O   UNL     1      -3.727   1.868  -2.621  0.00  0.00    -0.341 OA
BRANCH  37  38
ATOM     38  C   UNL     1      -2.684   2.463  -1.877  0.00  0.00    +0.282 C 
ATOM     39  C   UNL     1      -2.156   1.473  -0.832  0.00  0.00    +0.201 C 
ATOM     40  C   UNL     1      -0.652   1.670  -0.623  0.00  0.00    +0.179 C 
ATOM     41  C   UNL     1      -0.227   3.142  -0.852  0.00  0.00    +0.177 C 
ATOM     42  C   UNL     1      -0.786   3.750  -2.159  0.00  0.00    +0.178 C 
ATOM     43  O   UNL     1      -1.683   2.836  -2.807  0.00  0.00    -0.341 OA
BRANCH  41  44
ATOM     44  O   UNL     1      -0.752   3.953   0.222  0.00  0.00    -0.386 OA
ATOM     45  H   UNL     1      -0.861   3.391   1.013  0.00  0.00    +0.210 HD
ENDBRANCH  41  44
BRANCH  40  46
ATOM     46  O   UNL     1       0.094   0.781  -1.456  0.00  0.00    -0.386 OA
ATOM     47  H   UNL     1      -0.447  -0.023  -1.565  0.00  0.00    +0.210 HD
ENDBRANCH  40  46
BRANCH  39  48
ATOM     48  O   UNL     1      -2.799   1.622   0.461  0.00  0.00    -0.384 OA
ATOM     49  H   UNL     1      -2.131   1.552   1.154  0.00  0.00    +0.210 HD
ENDBRANCH  39  48
BRANCH  42  50
ATOM     50  C   UNL     1       0.272   4.139  -3.187  0.00  0.00    +0.190 C 
BRANCH  50  51
ATOM     51  O   UNL     1      -0.160   3.717  -4.487  0.00  0.00    -0.392 OA
ATOM     52  H   UNL     1       0.622   3.819  -5.068  0.00  0.00    +0.210 HD
ENDBRANCH  50  51
ENDBRANCH  42  50
ENDBRANCH  37  38
ENDBRANCH  22  37
BRANCH  21  53
ATOM     53  O   UNL     1      -5.096   4.556  -1.529  0.00  0.00    -0.459 OA
BRANCH  53  54
ATOM     54  C   UNL     1      -6.377   4.996  -1.630  0.00  0.00    +0.304 C 
ATOM     55  O   UNL     1      -7.318   4.344  -2.061  0.00  0.00    -0.251 OA
ATOM     56  C   UNL     1      -6.497   6.387  -1.075  0.00  0.00    +0.136 C 
ENDBRANCH  53  54
ENDBRANCH  21  53
TORSDOF 14
ENDMDL
MODEL 8
REMARK VINA RESULT:    -5.731      2.376     10.204
REMARK INTER + INTRA:         -11.101
REMARK INTER:                 -11.746
REMARK INTRA:                   0.645
REMARK UNBOUND:                -1.685
REMARK  Name = 
REMARK  22 active torsions:
REMARK  status: ('A' for Active; 'I' for Inactive)
REMARK    1  A    between atoms: C_1  and  C_2
REMARK    2  A    between atoms: C_2  and  C_3
REMARK    3  A    between atoms: C_2  and  C_6
REMARK    4  A    between atoms: C_3  and  C_4
REMARK    5  A    between atoms: C_3  and  C_5
REMARK    6  A    between atoms: C_6  and  C_50
REMARK    7  A    between atoms: C_9  and  C_49
REMARK    8  A    between atoms: C_14  and  C_48
REMARK    9  A    between atoms: C_17  and  O_47
REMARK   10  A    between atoms: C_22  and  C_27
REMARK   11  A    between atoms: C_23  and  C_24
REMARK   12  A    between atoms: C_24  and  O_26
REMARK   13  A    between atoms: C_29  and  O_43
REMARK   14  A    between atoms: C_30  and  O_31
REMARK   15  A    between atoms: O_31  and  C_32
REMARK   16  A    between atoms: C_33  and  O_42
REMARK   17  A    between atoms: C_34  and  O_41
REMARK   18  A    between atoms: C_35  and  O_40
REMARK   19  A    between atoms: C_36  and  C_38
REMARK   20  A    between atoms: C_38  and  O_39
REMARK   21  A    between atoms: O_43  and  C_44
REMARK   22  A    between atoms: C_44  and  C_46
REMARK                            x       y       z     vdW  Elec       q    Type
REMARK                         _______ _______ _______ _____ _____    ______ ____
ROOT
ATOM      1  C   UNL     1       1.026   1.896  -0.147  0.00  0.00    -0.016 C 
ATOM      2  C   UNL     1       0.429   3.324   0.115  0.00  0.00    +0.008 C 
ATOM      3  C   UNL     1      -0.245   4.098  -0.989  0.00  0.00    +0.008 C 
ATOM      4  C   UNL     1      -0.968   3.254  -2.051  0.00  0.00    -0.019 C 
ATOM      5  C   UNL     1      -2.411   3.780  -2.284  0.00  0.00    +0.022 C 
ATOM      6  C   UNL     1      -2.617   5.298  -2.322  0.00  0.00    +0.009 C 
ATOM      7  C   UNL     1      -4.102   5.516  -2.462  0.00  0.00    +0.006 C 
ATOM      8  C   UNL     1      -4.633   4.962  -3.785  0.00  0.00    +0.015 C 
ATOM      9  C   UNL     1      -4.994   6.018  -4.833  0.00  0.00    +0.025 C 
ATOM     10  C   UNL     1      -3.738   6.535  -5.549  0.00  0.00    +0.172 C 
ATOM     11  O   UNL     1      -3.183   5.496  -6.334  0.00  0.00    -0.350 OA
ATOM     12  C   UNL     1      -2.704   4.445  -5.523  0.00  0.00    +0.257 C 
ATOM     13  C   UNL     1      -3.763   3.870  -4.497  0.00  0.00    +0.050 C 
ATOM     14  C   UNL     1      -3.023   3.043  -3.466  0.00  0.00    -0.059 C 
ATOM     15  C   UNL     1      -2.733   1.744  -3.676  0.00  0.00    -0.026 C 
ATOM     16  C   UNL     1      -1.767   0.958  -2.859  0.00  0.00    +0.035 C 
ATOM     17  C   UNL     1      -1.146   1.710  -1.636  0.00  0.00    -0.009 C 
ATOM     18  C   UNL     1       0.234   1.059  -1.238  0.00  0.00    +0.110 C 
ATOM     19  C   UNL     1      -2.150   1.498  -0.455  0.00  0.00    +0.013 C 
ATOM     20  C   UNL     1      -4.787   3.007  -5.251  0.00  0.00    +0.063 C 
ATOM     21  C   UNL     1      -5.635   3.814  -6.211  0.00  0.00    +0.207 C 
ATOM     22  C   UNL     1      -5.953   5.292  -5.809  0.00  0.00    +0.170 C 
ATOM     23  C   UNL     1      -5.716   7.242  -4.227  0.00  0.00    +0.016 C 
ATOM     24  C   UNL     1      -0.161   3.482  -3.375  0.00  0.00    +0.012 C 
ATOM     25  C   UNL     1       0.918   1.276   1.294  0.00  0.00    +0.012 C 
ENDROOT
BRANCH   1  27
ATOM     26  C   UNL     1       3.531   0.968  -0.074  0.00  0.00    +0.008 C 
ATOM     27  C   UNL     1       2.578   2.073  -0.570  0.00  0.00    -0.005 C 
BRANCH  27  28
ATOM     28  C   UNL     1       3.255   3.463  -0.307  0.00  0.00    -0.014 C 
ATOM     29  C   UNL     1       4.275   3.545   0.844  0.00  0.00    +0.007 C 
ATOM     30  C   UNL     1       3.982   3.952  -1.570  0.00  0.00    +0.007 C 
ENDBRANCH  27  28
ENDBRANCH   1  27
BRANCH  18  31
ATOM     31  C   UNL     1       0.093  -0.507  -1.079  0.00  0.00    +0.309 C 
ATOM     32  O   UNL     1       0.990  -1.312  -1.329  0.00  0.00    -0.251 OA
BRANCH  31  33
ATOM     33  O   UNL     1      -1.037  -0.996  -0.551  0.00  0.00    -0.480 OA
ATOM     34  H   UNL     1      -0.950  -1.556   0.225  0.00  0.00    +0.295 HD
ENDBRANCH  31  33
ENDBRANCH  18  31
BRANCH  12  35
ATOM     35  O   UNL     1      -2.278   3.452  -6.444  0.00  0.00    -0.366 OA
ATOM     36  H   UNL     1      -1.498   3.862  -6.865  0.00  0.00    +0.213 HD
ENDBRANCH  12  35
BRANCH  22  37
ATOM     37  O   UNL     1      -6.049   6.135  -6.955  0.00  0.00    -0.341 OA
BRANCH  37  38
ATOM     38  C   UNL     1      -5.953   5.482  -8.204  0.00  0.00    +0.282 C 
ATOM     39  C   UNL     1      -6.221   6.479  -9.338  0.00  0.00    +0.201 C 
ATOM     40  C   UNL     1      -5.373   6.131 -10.565  0.00  0.00    +0.179 C 
ATOM     41  C   UNL     1      -5.108   4.608 -10.668  0.00  0.00    +0.177 C 
ATOM     42  C   UNL     1      -4.623   3.975  -9.344  0.00  0.00    +0.178 C 
ATOM     43  O   UNL     1      -4.648   4.935  -8.277  0.00  0.00    -0.341 OA
BRANCH  41  44
ATOM     44  O   UNL     1      -6.345   3.939 -11.001  0.00  0.00    -0.386 OA
ATOM     45  H   UNL     1      -6.141   3.168 -11.564  0.00  0.00    +0.210 HD
ENDBRANCH  41  44
BRANCH  40  46
ATOM     46  O   UNL     1      -4.151   6.870 -10.561  0.00  0.00    -0.386 OA
ATOM     47  H   UNL     1      -3.827   6.883 -11.481  0.00  0.00    +0.210 HD
ENDBRANCH  40  46
BRANCH  39  48
ATOM     48  O   UNL     1      -7.611   6.495  -9.758  0.00  0.00    -0.384 OA
ATOM     49  H   UNL     1      -7.845   7.389 -10.036  0.00  0.00    +0.210 HD
ENDBRANCH  39  48
BRANCH  42  50
ATOM     50  C   UNL     1      -3.211   3.398  -9.390  0.00  0.00    +0.190 C 
BRANCH  50  51
ATOM     51  O   UNL     1      -2.549   3.873 -10.569  0.00  0.00    -0.392 OA
ATOM     52  H   UNL     1      -3.244   3.917 -11.259  0.00  0.00    +0.210 HD
ENDBRANCH  50  51
ENDBRANCH  42  50
ENDBRANCH  37  38
ENDBRANCH  22  37
BRANCH  21  53
ATOM     53  O   UNL     1      -6.934   3.132  -6.258  0.00  0.00    -0.459 OA
BRANCH  53  54
ATOM     54  C   UNL     1      -6.938   1.774  -6.288  0.00  0.00    +0.304 C 
ATOM     55  O   UNL     1      -7.452   1.050  -5.447  0.00  0.00    -0.251 OA
ATOM     56  C   UNL     1      -6.274   1.277  -7.540  0.00  0.00    +0.136 C 
ENDBRANCH  53  54
ENDBRANCH  21  53
TORSDOF 14
ENDMDL
MODEL 9
REMARK VINA RESULT:    -5.701      2.550     10.473
REMARK INTER + INTRA:         -11.052
REMARK INTER:                  -9.945
REMARK INTRA:                  -1.108
REMARK UNBOUND:                -1.685
REMARK  Name = 
REMARK  22 active torsions:
REMARK  status: ('A' for Active; 'I' for Inactive)
REMARK    1  A    between atoms: C_1  and  C_2
REMARK    2  A    between atoms: C_2  and  C_3
REMARK    3  A    between atoms: C_2  and  C_6
REMARK    4  A    between atoms: C_3  and  C_4
REMARK    5  A    between atoms: C_3  and  C_5
REMARK    6  A    between atoms: C_6  and  C_50
REMARK    7  A    between atoms: C_9  and  C_49
REMARK    8  A    between atoms: C_14  and  C_48
REMARK    9  A    between atoms: C_17  and  O_47
REMARK   10  A    between atoms: C_22  and  C_27
REMARK   11  A    between atoms: C_23  and  C_24
REMARK   12  A    between atoms: C_24  and  O_26
REMARK   13  A    between atoms: C_29  and  O_43
REMARK   14  A    between atoms: C_30  and  O_31
REMARK   15  A    between atoms: O_31  and  C_32
REMARK   16  A    between atoms: C_33  and  O_42
REMARK   17  A    between atoms: C_34  and  O_41
REMARK   18  A    between atoms: C_35  and  O_40
REMARK   19  A    between atoms: C_36  and  C_38
REMARK   20  A    between atoms: C_38  and  O_39
REMARK   21  A    between atoms: O_43  and  C_44
REMARK   22  A    between atoms: C_44  and  C_46
REMARK                            x       y       z     vdW  Elec       q    Type
REMARK                         _______ _______ _______ _____ _____    ______ ____
ROOT
ATOM      1  C   UNL     1      -1.738  -0.116  -1.780  0.00  0.00    -0.016 C 
ATOM      2  C   UNL     1      -1.745  -0.232  -3.345  0.00  0.00    +0.008 C 
ATOM      3  C   UNL     1      -2.821   0.429  -4.168  0.00  0.00    +0.008 C 
ATOM      4  C   UNL     1      -3.397   1.732  -3.591  0.00  0.00    -0.019 C 
ATOM      5  C   UNL     1      -3.407   2.853  -4.666  0.00  0.00    +0.022 C 
ATOM      6  C   UNL     1      -3.813   2.468  -6.092  0.00  0.00    +0.009 C 
ATOM      7  C   UNL     1      -3.641   3.710  -6.927  0.00  0.00    +0.006 C 
ATOM      8  C   UNL     1      -4.587   4.827  -6.483  0.00  0.00    +0.015 C 
ATOM      9  C   UNL     1      -5.766   5.093  -7.423  0.00  0.00    +0.025 C 
ATOM     10  C   UNL     1      -6.881   4.059  -7.213  0.00  0.00    +0.172 C 
ATOM     11  O   UNL     1      -7.458   4.242  -5.933  0.00  0.00    -0.350 OA
ATOM     12  C   UNL     1      -6.529   3.953  -4.911  0.00  0.00    +0.257 C 
ATOM     13  C   UNL     1      -5.158   4.734  -5.025  0.00  0.00    +0.050 C 
ATOM     14  C   UNL     1      -4.151   4.061  -4.116  0.00  0.00    -0.059 C 
ATOM     15  C   UNL     1      -4.056   4.375  -2.809  0.00  0.00    -0.026 C 
ATOM     16  C   UNL     1      -3.315   3.565  -1.804  0.00  0.00    +0.035 C 
ATOM     17  C   UNL     1      -2.539   2.330  -2.368  0.00  0.00    -0.009 C 
ATOM     18  C   UNL     1      -2.326   1.254  -1.235  0.00  0.00    +0.110 C 
ATOM     19  C   UNL     1      -1.138   2.873  -2.803  0.00  0.00    +0.013 C 
ATOM     20  C   UNL     1      -5.368   6.199  -4.612  0.00  0.00    +0.063 C 
ATOM     21  C   UNL     1      -6.277   6.949  -5.563  0.00  0.00    +0.207 C 
ATOM     22  C   UNL     1      -6.237   6.525  -7.068  0.00  0.00    +0.170 C 
ATOM     23  C   UNL     1      -5.365   5.044  -8.914  0.00  0.00    +0.016 C 
ATOM     24  C   UNL     1      -4.888   1.401  -3.238  0.00  0.00    +0.012 C 
ATOM     25  C   UNL     1      -0.200  -0.277  -1.492  0.00  0.00    +0.012 C 
ENDROOT
BRANCH   1  27
ATOM     26  C   UNL     1      -1.758  -2.309  -0.252  0.00  0.00    +0.008 C 
ATOM     27  C   UNL     1      -2.560  -1.374  -1.180  0.00  0.00    -0.005 C 
BRANCH  27  28
ATOM     28  C   UNL     1      -3.377  -2.260  -2.184  0.00  0.00    -0.014 C 
ATOM     29  C   UNL     1      -3.301  -3.787  -2.003  0.00  0.00    +0.007 C 
ATOM     30  C   UNL     1      -4.868  -1.888  -2.134  0.00  0.00    +0.007 C 
ENDBRANCH  27  28
ENDBRANCH   1  27
BRANCH  18  31
ATOM     31  C   UNL     1      -1.709   1.916   0.060  0.00  0.00    +0.309 C 
ATOM     32  O   UNL     1      -0.557   2.344   0.138  0.00  0.00    -0.251 OA
BRANCH  31  33
ATOM     33  O   UNL     1      -2.508   2.116   1.117  0.00  0.00    -0.480 OA
ATOM     34  H   UNL     1      -2.114   2.528   1.891  0.00  0.00    +0.295 HD
ENDBRANCH  31  33
ENDBRANCH  18  31
BRANCH  12  35
ATOM     35  O   UNL     1      -7.214   4.276  -3.709  0.00  0.00    -0.366 OA
ATOM     36  H   UNL     1      -6.656   3.867  -3.020  0.00  0.00    +0.213 HD
ENDBRANCH  12  35
BRANCH  22  37
ATOM     37  O   UNL     1      -7.512   6.676  -7.688  0.00  0.00    -0.341 OA
BRANCH  37  38
ATOM     38  C   UNL     1      -7.574   7.623  -8.735  0.00  0.00    +0.282 C 
ATOM     39  C   UNL     1      -6.239   8.368  -8.846  0.00  0.00    +0.201 C 
ATOM     40  C   UNL     1      -5.943   8.717 -10.308  0.00  0.00    +0.179 C 
ATOM     41  C   UNL     1      -7.243   8.948 -11.118  0.00  0.00    +0.177 C 
ATOM     42  C   UNL     1      -8.302   7.840 -10.916  0.00  0.00    +0.178 C 
ATOM     43  O   UNL     1      -7.879   6.902  -9.916  0.00  0.00    -0.341 OA
BRANCH  41  44
ATOM     44  O   UNL     1      -7.860  10.176 -10.673  0.00  0.00    -0.386 OA
ATOM     45  H   UNL     1      -8.274  10.020  -9.803  0.00  0.00    +0.210 HD
ENDBRANCH  41  44
BRANCH  40  46
ATOM     46  O   UNL     1      -5.129   7.711 -10.912  0.00  0.00    -0.386 OA
ATOM     47  H   UNL     1      -5.622   7.375 -11.684  0.00  0.00    +0.210 HD
ENDBRANCH  40  46
BRANCH  39  48
ATOM     48  O   UNL     1      -6.221   9.608  -8.090  0.00  0.00    -0.384 OA
ATOM     49  H   UNL     1      -6.435  10.340  -8.682  0.00  0.00    +0.210 HD
ENDBRANCH  39  48
BRANCH  42  50
ATOM     50  C   UNL     1      -8.632   7.035 -12.170  0.00  0.00    +0.190 C 
BRANCH  50  51
ATOM     51  O   UNL     1     -10.053   6.872 -12.262  0.00  0.00    -0.392 OA
ATOM     52  H   UNL     1     -10.322   6.439 -11.425  0.00  0.00    +0.210 HD
ENDBRANCH  50  51
ENDBRANCH  42  50
ENDBRANCH  37  38
ENDBRANCH  22  37
BRANCH  21  53
ATOM     53  O   UNL     1      -5.815   8.342  -5.535  0.00  0.00    -0.459 OA
BRANCH  53  54
ATOM     54  C   UNL     1      -6.527   9.233  -4.798  0.00  0.00    +0.304 C 
ATOM     55  O   UNL     1      -6.884  10.340  -5.178  0.00  0.00    -0.251 OA
ATOM     56  C   UNL     1      -6.877   8.645  -3.461  0.00  0.00    +0.136 C 
ENDBRANCH  53  54
ENDBRANCH  21  53
TORSDOF 14
ENDMDL
