MODEL 1
REMARK VINA RESULT:    -5.449      0.000      0.000
REMARK INTER + INTRA:          -8.991
REMARK INTER:                  -7.998
REMARK INTRA:                  -0.993
REMARK UNBOUND:                -0.993
REMARK  Name = 
REMARK  12 active torsions:
REMARK  status: ('A' for Active; 'I' for Inactive)
REMARK    1  A    between atoms: C_2  and  C_22
REMARK    2  A    between atoms: C_3  and  O_21
REMARK    3  A    between atoms: C_4  and  O_20
REMARK    4  A    between atoms: C_5  and  O_19
REMARK    5  A    between atoms: C_6  and  N_7
REMARK    6  A    between atoms: N_7  and  C_8
REMARK    7  A    between atoms: C_10  and  C_17
REMARK    8  A    between atoms: C_11  and  O_16
REMARK    9  A    between atoms: C_12  and  O_15
REMARK   10  A    between atoms: C_13  and  O_14
REMARK   11  A    between atoms: C_17  and  O_18
REMARK   12  A    between atoms: C_22  and  O_23
REMARK                            x       y       z     vdW  Elec       q    Type
REMARK                         _______ _______ _______ _____ _____    ______ ____
ROOT
ATOM      1  N   UNL     1     100.327 131.521  70.460  0.00  0.00    -0.302 NA
ATOM      2  H   UNL     1      99.460 131.972  70.146  0.00  0.00    +0.123 HD
ENDROOT
BRANCH   1   8
ATOM      3  C   UNL     1      99.727 132.995  72.484  0.00  0.00    +0.029 C 
ATOM      4  C   UNL     1      98.220 132.726  72.659  0.00  0.00    +0.047 C 
ATOM      5  C   UNL     1      97.994 131.520  73.573  0.00  0.00    +0.151 C 
ATOM      6  C   UNL     1      98.727 130.284  73.054  0.00  0.00    +0.173 C 
ATOM      7  C   UNL     1     100.212 130.533  72.777  0.00  0.00    +0.162 C 
ATOM      8  C   UNL     1     100.514 131.795  71.918  0.00  0.00    +0.086 C 
BRANCH   7   9
ATOM      9  O   UNL     1     100.730 129.357  72.131  0.00  0.00    -0.388 OA
ATOM     10  H   UNL     1     100.997 128.766  72.865  0.00  0.00    +0.210 HD
ENDBRANCH   7   9
BRANCH   6  11
ATOM     11  O   UNL     1      98.582 129.246  74.042  0.00  0.00    -0.387 OA
ATOM     12  H   UNL     1      98.409 129.708  74.887  0.00  0.00    +0.210 HD
ENDBRANCH   6  11
BRANCH   5  13
ATOM     13  O   UNL     1      96.594 131.225  73.621  0.00  0.00    -0.389 OA
ATOM     14  H   UNL     1      96.331 131.351  74.557  0.00  0.00    +0.210 HD
ENDBRANCH   5  13
BRANCH   4  15
ATOM     15  C   UNL     1      97.502 133.964  73.212  0.00  0.00    +0.162 C 
BRANCH  15  16
ATOM     16  O   UNL     1      96.170 134.010  72.714  0.00  0.00    -0.395 OA
ATOM     17  H   UNL     1      96.216 133.793  71.766  0.00  0.00    +0.209 HD
ENDBRANCH  15  16
ENDBRANCH   4  15
ENDBRANCH   1   8
BRANCH   1  18
ATOM     18  C   UNL     1     101.404 132.080  69.594  0.00  0.00    +0.109 C 
ATOM     19  C   UNL     1     102.206 133.172  70.244  0.00  0.00    -0.002 C 
ATOM     20  C   UNL     1     103.495 133.082  70.630  0.00  0.00    -0.016 C 
ATOM     21  C   UNL     1     104.248 131.771  70.579  0.00  0.00    +0.173 C 
ATOM     22  C   UNL     1     103.437 130.564  70.057  0.00  0.00    +0.177 C 
ATOM     23  C   UNL     1     102.365 130.987  69.042  0.00  0.00    +0.166 C 
BRANCH  23  24
ATOM     24  O   UNL     1     101.634 129.832  68.584  0.00  0.00    -0.387 OA
ATOM     25  H   UNL     1     101.898 129.661  67.663  0.00  0.00    +0.210 HD
ENDBRANCH  23  24
BRANCH  22  26
ATOM     26  O   UNL     1     104.338 129.635  69.420  0.00  0.00    -0.386 OA
ATOM     27  H   UNL     1     103.804 129.036  68.866  0.00  0.00    +0.210 HD
ENDBRANCH  22  26
BRANCH  21  28
ATOM     28  O   UNL     1     104.712 131.495  71.903  0.00  0.00    -0.385 OA
ATOM     29  H   UNL     1     104.853 132.351  72.344  0.00  0.00    +0.210 HD
ENDBRANCH  21  28
BRANCH  20  30
ATOM     30  C   UNL     1     104.342 134.255  71.072  0.00  0.00    +0.189 C 
BRANCH  30  31
ATOM     31  O   UNL     1     105.704 134.089  70.699  0.00  0.00    -0.391 OA
ATOM     32  H   UNL     1     105.717 133.452  69.965  0.00  0.00    +0.210 HD
ENDBRANCH  30  31
ENDBRANCH  20  30
ENDBRANCH   1  18
TORSDOF 12
ENDMDL
MODEL 2
REMARK VINA RESULT:    -5.273     13.824     16.441
REMARK INTER + INTRA:          -8.732
REMARK INTER:                  -7.560
REMARK INTRA:                  -1.172
REMARK UNBOUND:                -0.993
REMARK  Name = 
REMARK  12 active torsions:
REMARK  status: ('A' for Active; 'I' for Inactive)
REMARK    1  A    between atoms: C_2  and  C_22
REMARK    2  A    between atoms: C_3  and  O_21
REMARK    3  A    between atoms: C_4  and  O_20
REMARK    4  A    between atoms: C_5  and  O_19
REMARK    5  A    between atoms: C_6  and  N_7
REMARK    6  A    between atoms: N_7  and  C_8
REMARK    7  A    between atoms: C_10  and  C_17
REMARK    8  A    between atoms: C_11  and  O_16
REMARK    9  A    between atoms: C_12  and  O_15
REMARK   10  A    between atoms: C_13  and  O_14
REMARK   11  A    between atoms: C_17  and  O_18
REMARK   12  A    between atoms: C_22  and  O_23
REMARK                            x       y       z     vdW  Elec       q    Type
REMARK                         _______ _______ _______ _____ _____    ______ ____
ROOT
ATOM      1  N   UNL     1      99.523 136.742  56.828  0.00  0.00    -0.302 NA
ATOM      2  H   UNL     1     100.001 137.328  56.135  0.00  0.00    +0.123 HD
ENDROOT
BRANCH   1   8
ATOM      3  C   UNL     1      98.643 135.840  54.583  0.00  0.00    +0.029 C 
ATOM      4  C   UNL     1      99.941 135.484  53.834  0.00  0.00    +0.047 C 
ATOM      5  C   UNL     1     100.367 134.050  54.151  0.00  0.00    +0.151 C 
ATOM      6  C   UNL     1     100.512 133.833  55.657  0.00  0.00    +0.173 C 
ATOM      7  C   UNL     1      99.275 134.262  56.452  0.00  0.00    +0.162 C 
ATOM      8  C   UNL     1      98.743 135.685  56.115  0.00  0.00    +0.086 C 
BRANCH   7   9
ATOM      9  O   UNL     1      99.613 134.175  57.847  0.00  0.00    -0.388 OA
ATOM     10  H   UNL     1      99.721 135.105  58.136  0.00  0.00    +0.210 HD
ENDBRANCH   7   9
BRANCH   6  11
ATOM     11  O   UNL     1     100.768 132.432  55.872  0.00  0.00    -0.387 OA
ATOM     12  H   UNL     1     101.483 132.196  55.246  0.00  0.00    +0.210 HD
ENDBRANCH   6  11
BRANCH   5  13
ATOM     13  O   UNL     1     101.633 133.790  53.535  0.00  0.00    -0.389 OA
ATOM     14  H   UNL     1     101.725 134.465  52.830  0.00  0.00    +0.210 HD
ENDBRANCH   5  13
BRANCH   4  15
ATOM     15  C   UNL     1      99.771 135.674  52.321  0.00  0.00    +0.162 C 
BRANCH  15  16
ATOM     16  O   UNL     1      99.416 134.435  51.717  0.00  0.00    -0.395 OA
ATOM     17  H   UNL     1      99.808 134.434  50.826  0.00  0.00    +0.209 HD
ENDBRANCH  15  16
ENDBRANCH   4  15
ENDBRANCH   1   8
BRANCH   1  18
ATOM     18  C   UNL     1      98.684 137.679  57.629  0.00  0.00    +0.109 C 
ATOM     19  C   UNL     1      97.213 137.373  57.584  0.00  0.00    -0.002 C 
ATOM     20  C   UNL     1      96.472 136.904  58.608  0.00  0.00    -0.016 C 
ATOM     21  C   UNL     1      97.104 136.483  59.916  0.00  0.00    +0.173 C 
ATOM     22  C   UNL     1      98.641 136.631  59.985  0.00  0.00    +0.177 C 
ATOM     23  C   UNL     1      99.146 137.789  59.112  0.00  0.00    +0.166 C 
BRANCH  23  24
ATOM     24  O   UNL     1     100.582 137.889  59.205  0.00  0.00    -0.387 OA
ATOM     25  H   UNL     1     100.797 138.792  59.497  0.00  0.00    +0.210 HD
ENDBRANCH  23  24
BRANCH  22  26
ATOM     26  O   UNL     1      99.027 136.878  61.352  0.00  0.00    -0.386 OA
ATOM     27  H   UNL     1      98.539 136.252  61.917  0.00  0.00    +0.210 HD
ENDBRANCH  22  26
BRANCH  21  28
ATOM     28  O   UNL     1      96.748 135.116  60.140  0.00  0.00    -0.385 OA
ATOM     29  H   UNL     1      95.777 135.073  60.179  0.00  0.00    +0.210 HD
ENDBRANCH  21  28
BRANCH  20  30
ATOM     30  C   UNL     1      94.961 136.818  58.606  0.00  0.00    +0.189 C 
BRANCH  30  31
ATOM     31  O   UNL     1      94.509 135.552  58.141  0.00  0.00    -0.391 OA
ATOM     32  H   UNL     1      95.172 134.899  58.419  0.00  0.00    +0.210 HD
ENDBRANCH  30  31
ENDBRANCH  20  30
ENDBRANCH   1  18
TORSDOF 12
ENDMDL
MODEL 3
REMARK VINA RESULT:    -5.151     13.150     15.484
REMARK INTER + INTRA:          -8.553
REMARK INTER:                  -7.402
REMARK INTRA:                  -1.151
REMARK UNBOUND:                -0.993
REMARK  Name = 
REMARK  12 active torsions:
REMARK  status: ('A' for Active; 'I' for Inactive)
REMARK    1  A    between atoms: C_2  and  C_22
REMARK    2  A    between atoms: C_3  and  O_21
REMARK    3  A    between atoms: C_4  and  O_20
REMARK    4  A    between atoms: C_5  and  O_19
REMARK    5  A    between atoms: C_6  and  N_7
REMARK    6  A    between atoms: N_7  and  C_8
REMARK    7  A    between atoms: C_10  and  C_17
REMARK    8  A    between atoms: C_11  and  O_16
REMARK    9  A    between atoms: C_12  and  O_15
REMARK   10  A    between atoms: C_13  and  O_14
REMARK   11  A    between atoms: C_17  and  O_18
REMARK   12  A    between atoms: C_22  and  O_23
REMARK                            x       y       z     vdW  Elec       q    Type
REMARK                         _______ _______ _______ _____ _____    ______ ____
ROOT
ATOM      1  N   UNL     1      99.129 136.292  59.613  0.00  0.00    -0.302 NA
ATOM      2  H   UNL     1      99.912 136.691  60.142  0.00  0.00    +0.123 HD
ENDROOT
BRANCH   1   8
ATOM      3  C   UNL     1     100.598 137.341  57.777  0.00  0.00    +0.029 C 
ATOM      4  C   UNL     1     101.978 136.714  58.055  0.00  0.00    +0.047 C 
ATOM      5  C   UNL     1     102.126 135.390  57.304  0.00  0.00    +0.151 C 
ATOM      6  C   UNL     1     100.992 134.425  57.649  0.00  0.00    +0.173 C 
ATOM      7  C   UNL     1      99.600 135.040  57.477  0.00  0.00    +0.162 C 
ATOM      8  C   UNL     1      99.411 136.429  58.151  0.00  0.00    +0.086 C 
BRANCH   7   9
ATOM      9  O   UNL     1      98.649 134.099  58.003  0.00  0.00    -0.388 OA
ATOM     10  H   UNL     1      98.431 134.437  58.896  0.00  0.00    +0.210 HD
ENDBRANCH   7   9
BRANCH   6  11
ATOM     11  O   UNL     1     101.126 133.273  56.796  0.00  0.00    -0.387 OA
ATOM     12  H   UNL     1     101.263 132.513  57.397  0.00  0.00    +0.210 HD
ENDBRANCH   6  11
BRANCH   5  13
ATOM     13  O   UNL     1     103.366 134.778  57.673  0.00  0.00    -0.389 OA
ATOM     14  H   UNL     1     103.828 135.438  58.232  0.00  0.00    +0.210 HD
ENDBRANCH   5  13
BRANCH   4  15
ATOM     15  C   UNL     1     103.107 137.680  57.672  0.00  0.00    +0.162 C 
BRANCH  15  16
ATOM     16  O   UNL     1     104.242 137.445  58.497  0.00  0.00    -0.395 OA
ATOM     17  H   UNL     1     104.222 136.503  58.742  0.00  0.00    +0.209 HD
ENDBRANCH  15  16
ENDBRANCH   4  15
ENDBRANCH   1   8
BRANCH   1  18
ATOM     18  C   UNL     1      97.920 137.036  60.070  0.00  0.00    +0.109 C 
ATOM     19  C   UNL     1      97.772 138.400  59.455  0.00  0.00    -0.002 C 
ATOM     20  C   UNL     1      96.830 138.765  58.562  0.00  0.00    -0.016 C 
ATOM     21  C   UNL     1      95.879 137.758  57.956  0.00  0.00    +0.173 C 
ATOM     22  C   UNL     1      96.069 136.300  58.432  0.00  0.00    +0.177 C 
ATOM     23  C   UNL     1      96.602 136.231  59.871  0.00  0.00    +0.166 C 
BRANCH  23  24
ATOM     24  O   UNL     1      96.766 134.856  60.273  0.00  0.00    -0.387 OA
ATOM     25  H   UNL     1      97.507 134.485  59.763  0.00  0.00    +0.210 HD
ENDBRANCH  23  24
BRANCH  22  26
ATOM     26  O   UNL     1      94.799 135.619  58.376  0.00  0.00    -0.386 OA
ATOM     27  H   UNL     1      94.144 136.242  58.012  0.00  0.00    +0.210 HD
ENDBRANCH  22  26
BRANCH  21  28
ATOM     28  O   UNL     1      96.044 137.818  56.536  0.00  0.00    -0.385 OA
ATOM     29  H   UNL     1      96.931 137.473  56.333  0.00  0.00    +0.210 HD
ENDBRANCH  21  28
BRANCH  20  30
ATOM     30  C   UNL     1      96.564 140.191  58.131  0.00  0.00    +0.189 C 
BRANCH  30  31
ATOM     31  O   UNL     1      95.216 140.370  57.715  0.00  0.00    -0.391 OA
ATOM     32  H   UNL     1      94.662 139.871  58.337  0.00  0.00    +0.210 HD
ENDBRANCH  30  31
ENDBRANCH  20  30
ENDBRANCH   1  18
TORSDOF 12
ENDMDL
MODEL 4
REMARK VINA RESULT:    -5.106     16.618     19.789
REMARK INTER + INTRA:          -8.487
REMARK INTER:                  -7.323
REMARK INTRA:                  -1.163
REMARK UNBOUND:                -0.993
REMARK  Name = 
REMARK  12 active torsions:
REMARK  status: ('A' for Active; 'I' for Inactive)
REMARK    1  A    between atoms: C_2  and  C_22
REMARK    2  A    between atoms: C_3  and  O_21
REMARK    3  A    between atoms: C_4  and  O_20
REMARK    4  A    between atoms: C_5  and  O_19
REMARK    5  A    between atoms: C_6  and  N_7
REMARK    6  A    between atoms: N_7  and  C_8
REMARK    7  A    between atoms: C_10  and  C_17
REMARK    8  A    between atoms: C_11  and  O_16
REMARK    9  A    between atoms: C_12  and  O_15
REMARK   10  A    between atoms: C_13  and  O_14
REMARK   11  A    between atoms: C_17  and  O_18
REMARK   12  A    between atoms: C_22  and  O_23
REMARK                            x       y       z     vdW  Elec       q    Type
REMARK                         _______ _______ _______ _____ _____    ______ ____
ROOT
ATOM      1  N   UNL     1      83.944 128.546  67.421  0.00  0.00    -0.302 NA
ATOM      2  H   UNL     1      84.889 128.570  67.818  0.00  0.00    +0.123 HD
ENDROOT
BRANCH   1   8
ATOM      3  C   UNL     1      85.236 126.810  66.027  0.00  0.00    +0.029 C 
ATOM      4  C   UNL     1      85.548 125.713  67.063  0.00  0.00    +0.047 C 
ATOM      5  C   UNL     1      84.408 124.695  67.125  0.00  0.00    +0.151 C 
ATOM      6  C   UNL     1      83.070 125.375  67.414  0.00  0.00    +0.173 C 
ATOM      7  C   UNL     1      82.763 126.535  66.462  0.00  0.00    +0.162 C 
ATOM      8  C   UNL     1      83.918 127.564  66.293  0.00  0.00    +0.086 C 
BRANCH   7   9
ATOM      9  O   UNL     1      81.582 127.190  66.954  0.00  0.00    -0.388 OA
ATOM     10  H   UNL     1      81.823 128.139  67.001  0.00  0.00    +0.210 HD
ENDBRANCH   7   9
BRANCH   6  11
ATOM     11  O   UNL     1      82.041 124.373  67.309  0.00  0.00    -0.387 OA
ATOM     12  H   UNL     1      82.221 123.735  68.029  0.00  0.00    +0.210 HD
ENDBRANCH   6  11
BRANCH   5  13
ATOM     13  O   UNL     1      84.672 123.759  68.176  0.00  0.00    -0.389 OA
ATOM     14  H   UNL     1      85.579 123.425  68.007  0.00  0.00    +0.210 HD
ENDBRANCH   5  13
BRANCH   4  15
ATOM     15  C   UNL     1      86.877 125.016  66.743  0.00  0.00    +0.162 C 
BRANCH  15  16
ATOM     16  O   UNL     1      87.486 124.565  67.947  0.00  0.00    -0.395 OA
ATOM     17  H   UNL     1      86.909 124.848  68.678  0.00  0.00    +0.209 HD
ENDBRANCH  15  16
ENDBRANCH   4  15
ENDBRANCH   1   8
BRANCH   1  18
ATOM     18  C   UNL     1      83.647 129.949  67.012  0.00  0.00    +0.109 C 
ATOM     19  C   UNL     1      83.272 130.097  65.564  0.00  0.00    -0.002 C 
ATOM     20  C   UNL     1      82.049 130.416  65.094  0.00  0.00    -0.016 C 
ATOM     21  C   UNL     1      80.849 130.517  66.010  0.00  0.00    +0.173 C 
ATOM     22  C   UNL     1      81.131 130.230  67.501  0.00  0.00    +0.177 C 
ATOM     23  C   UNL     1      82.561 130.622  67.902  0.00  0.00    +0.166 C 
BRANCH  23  24
ATOM     24  O   UNL     1      82.780 130.336  69.298  0.00  0.00    -0.387 OA
ATOM     25  H   UNL     1      83.578 129.783  69.365  0.00  0.00    +0.210 HD
ENDBRANCH  23  24
BRANCH  22  26
ATOM     26  O   UNL     1      80.202 130.983  68.307  0.00  0.00    -0.386 OA
ATOM     27  H   UNL     1      79.301 130.698  68.067  0.00  0.00    +0.210 HD
ENDBRANCH  22  26
BRANCH  21  28
ATOM     28  O   UNL     1      79.867 129.596  65.527  0.00  0.00    -0.385 OA
ATOM     29  H   UNL     1      79.059 130.107  65.341  0.00  0.00    +0.210 HD
ENDBRANCH  21  28
BRANCH  20  30
ATOM     30  C   UNL     1      81.750 130.778  63.656  0.00  0.00    +0.189 C 
BRANCH  30  31
ATOM     31  O   UNL     1      81.272 129.658  62.921  0.00  0.00    -0.391 OA
ATOM     32  H   UNL     1      81.932 128.952  63.026  0.00  0.00    +0.210 HD
ENDBRANCH  30  31
ENDBRANCH  20  30
ENDBRANCH   1  18
TORSDOF 12
ENDMDL
MODEL 5
REMARK VINA RESULT:    -4.946     11.544     12.908
REMARK INTER + INTRA:          -8.253
REMARK INTER:                  -7.105
REMARK INTRA:                  -1.148
REMARK UNBOUND:                -0.993
REMARK  Name = 
REMARK  12 active torsions:
REMARK  status: ('A' for Active; 'I' for Inactive)
REMARK    1  A    between atoms: C_2  and  C_22
REMARK    2  A    between atoms: C_3  and  O_21
REMARK    3  A    between atoms: C_4  and  O_20
REMARK    4  A    between atoms: C_5  and  O_19
REMARK    5  A    between atoms: C_6  and  N_7
REMARK    6  A    between atoms: N_7  and  C_8
REMARK    7  A    between atoms: C_10  and  C_17
REMARK    8  A    between atoms: C_11  and  O_16
REMARK    9  A    between atoms: C_12  and  O_15
REMARK   10  A    between atoms: C_13  and  O_14
REMARK   11  A    between atoms: C_17  and  O_18
REMARK   12  A    between atoms: C_22  and  O_23
REMARK                            x       y       z     vdW  Elec       q    Type
REMARK                         _______ _______ _______ _____ _____    ______ ____
ROOT
ATOM      1  N   UNL     1      96.484 137.427  61.448  0.00  0.00    -0.302 NA
ATOM      2  H   UNL     1      95.544 137.375  61.856  0.00  0.00    +0.123 HD
ENDROOT
BRANCH   1   8
ATOM      3  C   UNL     1      96.143 139.771  62.458  0.00  0.00    +0.029 C 
ATOM      4  C   UNL     1      95.812 139.456  63.929  0.00  0.00    +0.047 C 
ATOM      5  C   UNL     1      97.093 139.373  64.761  0.00  0.00    +0.151 C 
ATOM      6  C   UNL     1      98.070 138.353  64.176  0.00  0.00    +0.173 C 
ATOM      7  C   UNL     1      98.356 138.573  62.688  0.00  0.00    +0.162 C 
ATOM      8  C   UNL     1      97.091 138.748  61.798  0.00  0.00    +0.086 C 
BRANCH   7   9
ATOM      9  O   UNL     1      99.133 137.454  62.232  0.00  0.00    -0.388 OA
ATOM     10  H   UNL     1      99.228 137.592  61.267  0.00  0.00    +0.210 HD
ENDBRANCH   7   9
BRANCH   6  11
ATOM     11  O   UNL     1      99.295 138.445  64.927  0.00  0.00    -0.387 OA
ATOM     12  H   UNL     1      99.682 139.314  64.696  0.00  0.00    +0.210 HD
ENDBRANCH   6  11
BRANCH   5  13
ATOM     13  O   UNL     1      96.761 138.965  66.092  0.00  0.00    -0.389 OA
ATOM     14  H   UNL     1      97.586 138.588  66.464  0.00  0.00    +0.210 HD
ENDBRANCH   5  13
BRANCH   4  15
ATOM     15  C   UNL     1      94.857 140.506  64.514  0.00  0.00    +0.162 C 
BRANCH  15  16
ATOM     16  O   UNL     1      93.944 139.880  65.409  0.00  0.00    -0.395 OA
ATOM     17  H   UNL     1      93.378 139.298  64.872  0.00  0.00    +0.209 HD
ENDBRANCH  15  16
ENDBRANCH   4  15
ENDBRANCH   1   8
BRANCH   1  18
ATOM     18  C   UNL     1      96.295 137.215  59.985  0.00  0.00    +0.109 C 
ATOM     19  C   UNL     1      96.739 138.374  59.136  0.00  0.00    -0.002 C 
ATOM     20  C   UNL     1      97.807 138.385  58.312  0.00  0.00    -0.016 C 
ATOM     21  C   UNL     1      98.787 137.235  58.269  0.00  0.00    +0.173 C 
ATOM     22  C   UNL     1      98.475 136.064  59.228  0.00  0.00    +0.177 C 
ATOM     23  C   UNL     1      96.966 135.907  59.471  0.00  0.00    +0.166 C 
BRANCH  23  24
ATOM     24  O   UNL     1      96.721 134.807  60.370  0.00  0.00    -0.387 OA
ATOM     25  H   UNL     1      97.417 134.143  60.221  0.00  0.00    +0.210 HD
ENDBRANCH  23  24
BRANCH  22  26
ATOM     26  O   UNL     1      98.981 134.841  58.655  0.00  0.00    -0.386 OA
ATOM     27  H   UNL     1      98.963 134.937  57.685  0.00  0.00    +0.210 HD
ENDBRANCH  22  26
BRANCH  21  28
ATOM     28  O   UNL     1     100.080 137.765  58.573  0.00  0.00    -0.385 OA
ATOM     29  H   UNL     1     100.651 137.593  57.804  0.00  0.00    +0.210 HD
ENDBRANCH  21  28
BRANCH  20  30
ATOM     30  C   UNL     1      98.102 139.476  57.306  0.00  0.00    +0.189 C 
BRANCH  30  31
ATOM     31  O   UNL     1      98.867 138.987  56.212  0.00  0.00    -0.391 OA
ATOM     32  H   UNL     1      98.621 138.055  56.092  0.00  0.00    +0.210 HD
ENDBRANCH  30  31
ENDBRANCH  20  30
ENDBRANCH   1  18
TORSDOF 12
ENDMDL
MODEL 6
REMARK VINA RESULT:    -4.940     12.544     14.080
REMARK INTER + INTRA:          -8.244
REMARK INTER:                  -7.105
REMARK INTRA:                  -1.139
REMARK UNBOUND:                -0.993
REMARK  Name = 
REMARK  12 active torsions:
REMARK  status: ('A' for Active; 'I' for Inactive)
REMARK    1  A    between atoms: C_2  and  C_22
REMARK    2  A    between atoms: C_3  and  O_21
REMARK    3  A    between atoms: C_4  and  O_20
REMARK    4  A    between atoms: C_5  and  O_19
REMARK    5  A    between atoms: C_6  and  N_7
REMARK    6  A    between atoms: N_7  and  C_8
REMARK    7  A    between atoms: C_10  and  C_17
REMARK    8  A    between atoms: C_11  and  O_16
REMARK    9  A    between atoms: C_12  and  O_15
REMARK   10  A    between atoms: C_13  and  O_14
REMARK   11  A    between atoms: C_17  and  O_18
REMARK   12  A    between atoms: C_22  and  O_23
REMARK                            x       y       z     vdW  Elec       q    Type
REMARK                         _______ _______ _______ _____ _____    ______ ____
ROOT
ATOM      1  N   UNL     1      95.209 139.603  59.927  0.00  0.00    -0.302 NA
ATOM      2  H   UNL     1      95.690 140.449  60.251  0.00  0.00    +0.123 HD
ENDROOT
BRANCH   1   8
ATOM      3  C   UNL     1      95.777 139.034  62.373  0.00  0.00    +0.029 C 
ATOM      4  C   UNL     1      95.240 140.261  63.135  0.00  0.00    +0.047 C 
ATOM      5  C   UNL     1      93.772 140.057  63.513  0.00  0.00    +0.151 C 
ATOM      6  C   UNL     1      92.919 139.744  62.283  0.00  0.00    +0.173 C 
ATOM      7  C   UNL     1      93.470 138.588  61.443  0.00  0.00    +0.162 C 
ATOM      8  C   UNL     1      94.983 138.696  61.094  0.00  0.00    +0.086 C 
BRANCH   7   9
ATOM      9  O   UNL     1      92.686 138.522  60.240  0.00  0.00    -0.388 OA
ATOM     10  H   UNL     1      93.074 139.201  59.651  0.00  0.00    +0.210 HD
ENDBRANCH   7   9
BRANCH   6  11
ATOM     11  O   UNL     1      91.593 139.424  62.744  0.00  0.00    -0.387 OA
ATOM     12  H   UNL     1      91.062 139.276  61.935  0.00  0.00    +0.210 HD
ENDBRANCH   6  11
BRANCH   5  13
ATOM     13  O   UNL     1      93.272 141.256  64.113  0.00  0.00    -0.389 OA
ATOM     14  H   UNL     1      93.996 141.584  64.687  0.00  0.00    +0.210 HD
ENDBRANCH   5  13
BRANCH   4  15
ATOM     15  C   UNL     1      96.084 140.544  64.384  0.00  0.00    +0.162 C 
BRANCH  15  16
ATOM     16  O   UNL     1      95.527 139.866  65.505  0.00  0.00    -0.395 OA
ATOM     17  H   UNL     1      96.163 139.175  65.762  0.00  0.00    +0.209 HD
ENDBRANCH  15  16
ENDBRANCH   4  15
ENDBRANCH   1   8
BRANCH   1  18
ATOM     18  C   UNL     1      96.089 139.025  58.871  0.00  0.00    +0.109 C 
ATOM     19  C   UNL     1      97.413 138.529  59.382  0.00  0.00    -0.002 C 
ATOM     20  C   UNL     1      97.796 137.239  59.458  0.00  0.00    -0.016 C 
ATOM     21  C   UNL     1      96.837 136.108  59.161  0.00  0.00    +0.173 C 
ATOM     22  C   UNL     1      95.406 136.541  58.770  0.00  0.00    +0.177 C 
ATOM     23  C   UNL     1      95.393 137.899  58.052  0.00  0.00    +0.166 C 
BRANCH  23  24
ATOM     24  O   UNL     1      94.041 138.263  57.708  0.00  0.00    -0.387 OA
ATOM     25  H   UNL     1      93.442 137.682  58.208  0.00  0.00    +0.210 HD
ENDBRANCH  23  24
BRANCH  22  26
ATOM     26  O   UNL     1      94.840 135.547  57.891  0.00  0.00    -0.386 OA
ATOM     27  H   UNL     1      94.757 134.717  58.395  0.00  0.00    +0.210 HD
ENDBRANCH  22  26
BRANCH  21  28
ATOM     28  O   UNL     1      96.780 135.281  60.326  0.00  0.00    -0.385 OA
ATOM     29  H   UNL     1      96.369 134.439  60.063  0.00  0.00    +0.210 HD
ENDBRANCH  21  28
BRANCH  20  30
ATOM     30  C   UNL     1      99.205 136.779  59.762  0.00  0.00    +0.189 C 
BRANCH  30  31
ATOM     31  O   UNL     1      99.372 136.474  61.141  0.00  0.00    -0.391 OA
ATOM     32  H   UNL     1     100.328 136.413  61.301  0.00  0.00    +0.210 HD
ENDBRANCH  30  31
ENDBRANCH  20  30
ENDBRANCH   1  18
TORSDOF 12
ENDMDL
MODEL 7
REMARK VINA RESULT:    -4.762     11.385     13.859
REMARK INTER + INTRA:          -7.982
REMARK INTER:                  -7.006
REMARK INTRA:                  -0.975
REMARK UNBOUND:                -0.993
REMARK  Name = 
REMARK  12 active torsions:
REMARK  status: ('A' for Active; 'I' for Inactive)
REMARK    1  A    between atoms: C_2  and  C_22
REMARK    2  A    between atoms: C_3  and  O_21
REMARK    3  A    between atoms: C_4  and  O_20
REMARK    4  A    between atoms: C_5  and  O_19
REMARK    5  A    between atoms: C_6  and  N_7
REMARK    6  A    between atoms: N_7  and  C_8
REMARK    7  A    between atoms: C_10  and  C_17
REMARK    8  A    between atoms: C_11  and  O_16
REMARK    9  A    between atoms: C_12  and  O_15
REMARK   10  A    between atoms: C_13  and  O_14
REMARK   11  A    between atoms: C_17  and  O_18
REMARK   12  A    between atoms: C_22  and  O_23
REMARK                            x       y       z     vdW  Elec       q    Type
REMARK                         _______ _______ _______ _____ _____    ______ ____
ROOT
ATOM      1  N   UNL     1      99.476 136.791  60.078  0.00  0.00    -0.302 NA
ATOM      2  H   UNL     1     100.347 136.259  60.179  0.00  0.00    +0.123 HD
ENDROOT
BRANCH   1   8
ATOM      3  C   UNL     1     100.221 137.119  57.635  0.00  0.00    +0.029 C 
ATOM      4  C   UNL     1     101.199 135.948  57.424  0.00  0.00    +0.047 C 
ATOM      5  C   UNL     1     100.451 134.704  56.943  0.00  0.00    +0.151 C 
ATOM      6  C   UNL     1      99.325 134.326  57.906  0.00  0.00    +0.173 C 
ATOM      7  C   UNL     1      98.380 135.490  58.218  0.00  0.00    +0.162 C 
ATOM      8  C   UNL     1      99.086 136.812  58.634  0.00  0.00    +0.086 C 
BRANCH   7   9
ATOM      9  O   UNL     1      97.492 135.052  59.260  0.00  0.00    -0.388 OA
ATOM     10  H   UNL     1      98.071 134.602  59.910  0.00  0.00    +0.210 HD
ENDBRANCH   7   9
BRANCH   6  11
ATOM     11  O   UNL     1      98.586 133.244  57.308  0.00  0.00    -0.387 OA
ATOM     12  H   UNL     1      97.650 133.528  57.317  0.00  0.00    +0.210 HD
ENDBRANCH   6  11
BRANCH   5  13
ATOM     13  O   UNL     1     101.366 133.606  56.870  0.00  0.00    -0.389 OA
ATOM     14  H   UNL     1     101.593 133.391  57.799  0.00  0.00    +0.210 HD
ENDBRANCH   5  13
BRANCH   4  15
ATOM     15  C   UNL     1     102.305 136.329  56.430  0.00  0.00    +0.162 C 
BRANCH  15  16
ATOM     16  O   UNL     1     103.452 135.516  56.651  0.00  0.00    -0.395 OA
ATOM     17  H   UNL     1     104.227 136.103  56.604  0.00  0.00    +0.209 HD
ENDBRANCH  15  16
ENDBRANCH   4  15
ENDBRANCH   1   8
BRANCH   1  18
ATOM     18  C   UNL     1      99.764 138.138  60.649  0.00  0.00    +0.109 C 
ATOM     19  C   UNL     1      98.555 138.838  61.203  0.00  0.00    -0.002 C 
ATOM     20  C   UNL     1      98.312 139.082  62.507  0.00  0.00    -0.016 C 
ATOM     21  C   UNL     1      99.198 138.522  63.596  0.00  0.00    +0.173 C 
ATOM     22  C   UNL     1     100.385 137.663  63.106  0.00  0.00    +0.177 C 
ATOM     23  C   UNL     1     100.888 138.112  61.726  0.00  0.00    +0.166 C 
BRANCH  23  24
ATOM     24  O   UNL     1     101.992 137.284  61.308  0.00  0.00    -0.387 OA
ATOM     25  H   UNL     1     102.175 137.486  60.373  0.00  0.00    +0.210 HD
ENDBRANCH  23  24
BRANCH  22  26
ATOM     26  O   UNL     1     101.468 137.775  64.052  0.00  0.00    -0.386 OA
ATOM     27  H   UNL     1     101.639 136.887  64.415  0.00  0.00    +0.210 HD
ENDBRANCH  22  26
BRANCH  21  28
ATOM     28  O   UNL     1      98.369 137.738  64.459  0.00  0.00    -0.385 OA
ATOM     29  H   UNL     1      97.529 138.218  64.566  0.00  0.00    +0.210 HD
ENDBRANCH  21  28
BRANCH  20  30
ATOM     30  C   UNL     1      97.207 139.979  63.020  0.00  0.00    +0.189 C 
BRANCH  30  31
ATOM     31  O   UNL     1      96.160 139.230  63.623  0.00  0.00    -0.391 OA
ATOM     32  H   UNL     1      96.016 138.449  63.063  0.00  0.00    +0.210 HD
ENDBRANCH  30  31
ENDBRANCH  20  30
ENDBRANCH   1  18
TORSDOF 12
ENDMDL
MODEL 8
REMARK VINA RESULT:    -4.738     13.085     14.488
REMARK INTER + INTRA:          -7.947
REMARK INTER:                  -7.112
REMARK INTRA:                  -0.836
REMARK UNBOUND:                -0.993
REMARK  Name = 
REMARK  12 active torsions:
REMARK  status: ('A' for Active; 'I' for Inactive)
REMARK    1  A    between atoms: C_2  and  C_22
REMARK    2  A    between atoms: C_3  and  O_21
REMARK    3  A    between atoms: C_4  and  O_20
REMARK    4  A    between atoms: C_5  and  O_19
REMARK    5  A    between atoms: C_6  and  N_7
REMARK    6  A    between atoms: N_7  and  C_8
REMARK    7  A    between atoms: C_10  and  C_17
REMARK    8  A    between atoms: C_11  and  O_16
REMARK    9  A    between atoms: C_12  and  O_15
REMARK   10  A    between atoms: C_13  and  O_14
REMARK   11  A    between atoms: C_17  and  O_18
REMARK   12  A    between atoms: C_22  and  O_23
REMARK                            x       y       z     vdW  Elec       q    Type
REMARK                         _______ _______ _______ _____ _____    ______ ____
ROOT
ATOM      1  N   UNL     1      99.136 136.038  59.482  0.00  0.00    -0.302 NA
ATOM      2  H   UNL     1      98.750 135.121  59.234  0.00  0.00    +0.123 HD
ENDROOT
BRANCH   1   8
ATOM      3  C   UNL     1      97.943 138.258  58.956  0.00  0.00    +0.029 C 
ATOM      4  C   UNL     1      97.444 138.036  57.516  0.00  0.00    +0.047 C 
ATOM      5  C   UNL     1      96.059 137.387  57.523  0.00  0.00    +0.151 C 
ATOM      6  C   UNL     1      96.059 136.085  58.323  0.00  0.00    +0.173 C 
ATOM      7  C   UNL     1      96.636 136.241  59.733  0.00  0.00    +0.162 C 
ATOM      8  C   UNL     1      98.009 136.969  59.800  0.00  0.00    +0.086 C 
BRANCH   7   9
ATOM      9  O   UNL     1      96.743 134.924  60.299  0.00  0.00    -0.388 OA
ATOM     10  H   UNL     1      95.839 134.552  60.240  0.00  0.00    +0.210 HD
ENDBRANCH   7   9
BRANCH   6  11
ATOM     11  O   UNL     1      94.697 135.622  58.401  0.00  0.00    -0.387 OA
ATOM     12  H   UNL     1      94.611 135.205  59.282  0.00  0.00    +0.210 HD
ENDBRANCH   6  11
BRANCH   5  13
ATOM     13  O   UNL     1      95.675 137.088  56.177  0.00  0.00    -0.389 OA
ATOM     14  H   UNL     1      94.718 136.878  56.218  0.00  0.00    +0.210 HD
ENDBRANCH   5  13
BRANCH   4  15
ATOM     15  C   UNL     1      97.416 139.356  56.734  0.00  0.00    +0.162 C 
BRANCH  15  16
ATOM     16  O   UNL     1      96.103 139.903  56.759  0.00  0.00    -0.395 OA
ATOM     17  H   UNL     1      96.033 140.503  55.995  0.00  0.00    +0.209 HD
ENDBRANCH  15  16
ENDBRANCH   4  15
ENDBRANCH   1   8
BRANCH   1  18
ATOM     18  C   UNL     1      99.956 136.456  58.309  0.00  0.00    +0.109 C 
ATOM     19  C   UNL     1     101.324 136.965  58.669  0.00  0.00    -0.002 C 
ATOM     20  C   UNL     1     102.491 136.343  58.409  0.00  0.00    -0.016 C 
ATOM     21  C   UNL     1     102.534 134.944  57.836  0.00  0.00    +0.173 C 
ATOM     22  C   UNL     1     101.156 134.295  57.576  0.00  0.00    +0.177 C 
ATOM     23  C   UNL     1     100.084 135.339  57.231  0.00  0.00    +0.166 C 
BRANCH  23  24
ATOM     24  O   UNL     1      98.817 134.691  56.999  0.00  0.00    -0.387 OA
ATOM     25  H   UNL     1      98.286 134.782  57.809  0.00  0.00    +0.210 HD
ENDBRANCH  23  24
BRANCH  22  26
ATOM     26  O   UNL     1     101.273 133.371  56.474  0.00  0.00    -0.386 OA
ATOM     27  H   UNL     1     102.094 132.860  56.600  0.00  0.00    +0.210 HD
ENDBRANCH  22  26
BRANCH  21  28
ATOM     28  O   UNL     1     103.276 134.132  58.750  0.00  0.00    -0.385 OA
ATOM     29  H   UNL     1     103.017 134.398  59.649  0.00  0.00    +0.210 HD
ENDBRANCH  21  28
BRANCH  20  30
ATOM     30  C   UNL     1     103.856 136.974  58.577  0.00  0.00    +0.189 C 
BRANCH  30  31
ATOM     31  O   UNL     1     104.837 136.323  57.780  0.00  0.00    -0.391 OA
ATOM     32  H   UNL     1     105.001 135.457  58.189  0.00  0.00    +0.210 HD
ENDBRANCH  30  31
ENDBRANCH  20  30
ENDBRANCH   1  18
TORSDOF 12
ENDMDL
MODEL 9
REMARK VINA RESULT:    -4.696      2.348      3.137
REMARK INTER + INTRA:          -7.885
REMARK INTER:                  -6.684
REMARK INTRA:                  -1.201
REMARK UNBOUND:                -0.993
REMARK  Name = 
REMARK  12 active torsions:
REMARK  status: ('A' for Active; 'I' for Inactive)
REMARK    1  A    between atoms: C_2  and  C_22
REMARK    2  A    between atoms: C_3  and  O_21
REMARK    3  A    between atoms: C_4  and  O_20
REMARK    4  A    between atoms: C_5  and  O_19
REMARK    5  A    between atoms: C_6  and  N_7
REMARK    6  A    between atoms: N_7  and  C_8
REMARK    7  A    between atoms: C_10  and  C_17
REMARK    8  A    between atoms: C_11  and  O_16
REMARK    9  A    between atoms: C_12  and  O_15
REMARK   10  A    between atoms: C_13  and  O_14
REMARK   11  A    between atoms: C_17  and  O_18
REMARK   12  A    between atoms: C_22  and  O_23
REMARK                            x       y       z     vdW  Elec       q    Type
REMARK                         _______ _______ _______ _____ _____    ______ ____
ROOT
ATOM      1  N   UNL     1     100.950 133.238  72.729  0.00  0.00    -0.302 NA
ATOM      2  H   UNL     1     100.396 133.869  73.317  0.00  0.00    +0.123 HD
ENDROOT
BRANCH   1   8
ATOM      3  C   UNL     1     100.976 132.085  75.030  0.00  0.00    +0.029 C 
ATOM      4  C   UNL     1      99.475 131.908  75.332  0.00  0.00    +0.047 C 
ATOM      5  C   UNL     1      98.967 130.582  74.764  0.00  0.00    +0.151 C 
ATOM      6  C   UNL     1      99.254 130.472  73.267  0.00  0.00    +0.173 C 
ATOM      7  C   UNL     1     100.720 130.734  72.911  0.00  0.00    +0.162 C 
ATOM      8  C   UNL     1     101.321 132.030  73.528  0.00  0.00    +0.086 C 
BRANCH   7   9
ATOM      9  O   UNL     1     100.810 130.778  71.477  0.00  0.00    -0.388 OA
ATOM     10  H   UNL     1      99.995 131.238  71.189  0.00  0.00    +0.210 HD
ENDBRANCH   7   9
BRANCH   6  11
ATOM     11  O   UNL     1      98.879 129.146  72.849  0.00  0.00    -0.387 OA
ATOM     12  H   UNL     1      99.409 128.963  72.046  0.00  0.00    +0.210 HD
ENDBRANCH   6  11
BRANCH   5  13
ATOM     13  O   UNL     1      97.550 130.502  74.957  0.00  0.00    -0.389 OA
ATOM     14  H   UNL     1      97.294 129.609  74.646  0.00  0.00    +0.210 HD
ENDBRANCH   5  13
BRANCH   4  15
ATOM     15  C   UNL     1      99.205 131.987  76.841  0.00  0.00    +0.162 C 
BRANCH  15  16
ATOM     16  O   UNL     1      99.427 130.714  77.437  0.00  0.00    -0.395 OA
ATOM     17  H   UNL     1     100.357 130.481  77.266  0.00  0.00    +0.209 HD
ENDBRANCH  15  16
ENDBRANCH   4  15
ENDBRANCH   1   8
BRANCH   1  18
ATOM     18  C   UNL     1     102.118 134.044  72.270  0.00  0.00    +0.109 C 
ATOM     19  C   UNL     1     103.446 133.379  72.496  0.00  0.00    -0.002 C 
ATOM     20  C   UNL     1     104.261 132.897  71.535  0.00  0.00    -0.016 C 
ATOM     21  C   UNL     1     103.833 132.845  70.085  0.00  0.00    +0.173 C 
ATOM     22  C   UNL     1     102.412 133.379  69.797  0.00  0.00    +0.177 C 
ATOM     23  C   UNL     1     102.002 134.484  70.781  0.00  0.00    +0.166 C 
BRANCH  23  24
ATOM     24  O   UNL     1     100.673 134.951  70.476  0.00  0.00    -0.387 OA
ATOM     25  H   UNL     1     100.247 135.199  71.315  0.00  0.00    +0.210 HD
ENDBRANCH  23  24
BRANCH  22  26
ATOM     26  O   UNL     1     102.376 133.914  68.458  0.00  0.00    -0.386 OA
ATOM     27  H   UNL     1     101.664 133.458  67.974  0.00  0.00    +0.210 HD
ENDBRANCH  22  26
BRANCH  21  28
ATOM     28  O   UNL     1     103.923 131.481  69.664  0.00  0.00    -0.385 OA
ATOM     29  H   UNL     1     103.017 131.174  69.487  0.00  0.00    +0.210 HD
ENDBRANCH  21  28
BRANCH  20  30
ATOM     30  C   UNL     1     105.684 132.439  71.768  0.00  0.00    +0.189 C 
BRANCH  30  31
ATOM     31  O   UNL     1     105.771 131.022  71.856  0.00  0.00    -0.391 OA
ATOM     32  H   UNL     1     104.916 130.670  71.556  0.00  0.00    +0.210 HD
ENDBRANCH  30  31
ENDBRANCH  20  30
ENDBRANCH   1  18
TORSDOF 12
ENDMDL
