MODEL 1
REMARK VINA RESULT:    -5.691      0.000      0.000
REMARK INTER + INTRA:         -12.067
REMARK INTER:                  -9.351
REMARK INTRA:                  -2.716
REMARK UNBOUND:                -2.716
REMARK  Name = 456557
REMARK  15 active torsions:
REMARK  status: ('A' for Active; 'I' for Inactive)
REMARK    1  A    between atoms: O_2  and  C_17
REMARK    2  A    between atoms: O_3  and  C_18
REMARK    3  A    between atoms: O_4  and  C_22
REMARK    4  A    between atoms: O_7  and  C_27
REMARK    5  A    between atoms: O_10  and  C_35
REMARK    6  A    between atoms: N_11  and  C_19
REMARK    7  A    between atoms: N_12  and  CA_20
REMARK    8  A    between atoms: N_13  and  CA_21
REMARK    9  A    between atoms: C_16  and  CA_20
REMARK   10  A    between atoms: CA_20  and  C_22
REMARK   11  A    between atoms: CA_21  and  C_23
REMARK   12  A    between atoms: CA_21  and  C_24
REMARK   13  A    between atoms: C_23  and  C_27
REMARK   14  A    between atoms: C_23  and  C_28
REMARK   15  A    between atoms: C_27  and  C_30
REMARK                            x       y       z     vdW  Elec       q    Type
REMARK                         _______ _______ _______ _____ _____    ______ ____
ROOT
ATOM      1  CA  UNL     1     100.797 132.716  73.539  0.00  0.00    +0.213 C 
ENDROOT
BRANCH   1   3
ATOM      2  O   UNL     1     100.534 132.543  71.091  0.00  0.00    -0.345 OA
ATOM      3  C   UNL     1     100.553 131.780  72.326  0.00  0.00    +0.183 C 
ATOM      4  C   UNL     1     101.630 130.707  72.117  0.00  0.00    +0.178 C 
ATOM      5  C   UNL     1     102.614 131.371  71.160  0.00  0.00    +0.195 C 
ATOM      6  C   UNL     1     101.625 132.114  70.254  0.00  0.00    +0.255 C 
BRANCH   6   9
ATOM      7  O   UNL     1     100.500 133.091  67.884  0.00  0.00    -0.246 OA
ATOM      8  O   UNL     1     103.954 135.770  67.035  0.00  0.00    -0.268 OA
ATOM      9  N   UNL     1     102.114 133.285  69.530  0.00  0.00    -0.271 N 
ATOM     10  N   UNL     1     102.042 134.728  67.694  0.00  0.00    -0.275 N 
ATOM     11  C   UNL     1     101.470 133.680  68.366  0.00  0.00    +0.331 A 
ATOM     12  C   UNL     1     103.321 133.840  69.908  0.00  0.00    +0.098 A 
ATOM     13  C   UNL     1     103.953 134.735  69.146  0.00  0.00    +0.088 A 
ATOM     14  C   UNL     1     103.328 135.138  67.879  0.00  0.00    +0.254 A 
ATOM     15  H   UNL     1     101.643 134.961  66.797  0.00  0.00    +0.173 HD
ENDBRANCH   6   9
BRANCH   4  16
ATOM     16  O   UNL     1     101.110 129.563  71.393  0.00  0.00    -0.386 OA
ATOM     17  H   UNL     1     100.215 129.782  71.071  0.00  0.00    +0.210 HD
ENDBRANCH   4  16
BRANCH   5  18
ATOM     18  O   UNL     1     103.384 130.388  70.460  0.00  0.00    -0.385 OA
ATOM     19  H   UNL     1     104.324 130.630  70.638  0.00  0.00    +0.210 HD
ENDBRANCH   5  18
ENDBRANCH   1   3
BRANCH   1  21
ATOM     20  O   UNL     1     101.000 130.732  75.626  0.00  0.00    -0.274 OA
ATOM     21  N   UNL     1      99.944 132.537  74.727  0.00  0.00    -0.299 N 
ATOM     22  C   UNL     1     100.016 131.461  75.577  0.00  0.00    +0.231 C 
ATOM     23  H   UNL     1      99.010 132.955  74.703  0.00  0.00    +0.150 HD
BRANCH  22  24
ATOM     24  CA  UNL     1      98.776 131.221  76.476  0.00  0.00    +0.143 C 
BRANCH  24  25
ATOM     25  N   UNL     1      99.189 131.409  77.897  0.00  0.00    -0.320 NA
ATOM     26  H1  UNL     1     100.205 131.342  77.963  0.00  0.00    +0.119 HD
ATOM     27  H2  UNL     1      98.973 132.370  78.169  0.00  0.00    +0.119 HD
ENDBRANCH  24  25
BRANCH  24  28
ATOM     28  C   UNL     1      97.588 132.143  76.096  0.00  0.00    +0.046 C 
ATOM     29  C   UNL     1      97.130 133.018  77.284  0.00  0.00    +0.012 C 
BRANCH  28  30
ATOM     30  C   UNL     1      96.388 131.400  75.430  0.00  0.00    +0.168 C 
BRANCH  30  32
ATOM     31  N   UNL     1      97.136 132.213  73.225  0.00  0.00    -0.254 NA
ATOM     32  C   UNL     1      96.122 131.676  73.953  0.00  0.00    +0.070 A 
ATOM     33  C   UNL     1      94.933 131.251  73.355  0.00  0.00    +0.029 A 
ATOM     34  C   UNL     1      94.752 131.423  71.985  0.00  0.00    +0.049 A 
ATOM     35  C   UNL     1      96.937 132.354  71.891  0.00  0.00    +0.156 A 
ATOM     36  C   UNL     1      95.776 131.972  71.238  0.00  0.00    +0.135 A 
BRANCH  36  37
ATOM     37  O   UNL     1      95.600 132.094  69.894  0.00  0.00    -0.505 OA
ATOM     38  H   UNL     1      96.296 132.669  69.534  0.00  0.00    +0.292 HD
ENDBRANCH  36  37
ENDBRANCH  30  32
BRANCH  30  39
ATOM     39  O   UNL     1      96.604 129.982  75.561  0.00  0.00    -0.385 OA
ATOM     40  H   UNL     1      95.950 129.566  74.967  0.00  0.00    +0.210 HD
ENDBRANCH  30  39
ENDBRANCH  28  30
ENDBRANCH  24  28
ENDBRANCH  22  24
ENDBRANCH   1  21
BRANCH   1  42
ATOM     41  OXT UNL     1     101.540 134.943  72.847  0.00  0.00    -0.249 OA
ATOM     42  C   UNL     1     100.616 134.166  73.060  0.00  0.00    +0.328 C 
BRANCH  42  43
ATOM     43  O   UNL     1      99.320 134.515  72.874  0.00  0.00    -0.479 OA
ATOM     44  H   UNL     1      99.193 135.485  72.745  0.00  0.00    +0.295 HD
ENDBRANCH  42  43
ENDBRANCH   1  42
TORSDOF 14
ENDMDL
MODEL 2
REMARK VINA RESULT:    -5.612     11.269     14.335
REMARK INTER + INTRA:         -11.937
REMARK INTER:                  -9.540
REMARK INTRA:                  -2.396
REMARK UNBOUND:                -2.716
REMARK  Name = 456557
REMARK  15 active torsions:
REMARK  status: ('A' for Active; 'I' for Inactive)
REMARK    1  A    between atoms: O_2  and  C_17
REMARK    2  A    between atoms: O_3  and  C_18
REMARK    3  A    between atoms: O_4  and  C_22
REMARK    4  A    between atoms: O_7  and  C_27
REMARK    5  A    between atoms: O_10  and  C_35
REMARK    6  A    between atoms: N_11  and  C_19
REMARK    7  A    between atoms: N_12  and  CA_20
REMARK    8  A    between atoms: N_13  and  CA_21
REMARK    9  A    between atoms: C_16  and  CA_20
REMARK   10  A    between atoms: CA_20  and  C_22
REMARK   11  A    between atoms: CA_21  and  C_23
REMARK   12  A    between atoms: CA_21  and  C_24
REMARK   13  A    between atoms: C_23  and  C_27
REMARK   14  A    between atoms: C_23  and  C_28
REMARK   15  A    between atoms: C_27  and  C_30
REMARK                            x       y       z     vdW  Elec       q    Type
REMARK                         _______ _______ _______ _____ _____    ______ ____
ROOT
ATOM      1  CA  UNL     1      98.845 136.373  59.415  0.00  0.00    +0.213 C 
ENDROOT
BRANCH   1   3
ATOM      2  O   UNL     1      99.215 134.396  57.984  0.00  0.00    -0.345 OA
ATOM      3  C   UNL     1      99.760 135.164  59.090  0.00  0.00    +0.183 C 
ATOM      4  C   UNL     1     101.185 135.536  58.654  0.00  0.00    +0.178 C 
ATOM      5  C   UNL     1     101.082 135.619  57.135  0.00  0.00    +0.195 C 
ATOM      6  C   UNL     1     100.136 134.440  56.879  0.00  0.00    +0.255 C 
BRANCH   6   9
ATOM      7  O   UNL     1     101.135 133.747  54.357  0.00  0.00    -0.246 OA
ATOM      8  O   UNL     1      97.611 135.419  52.208  0.00  0.00    -0.268 OA
ATOM      9  N   UNL     1      99.350 134.454  55.648  0.00  0.00    -0.271 N 
ATOM     10  N   UNL     1      99.179 134.211  53.330  0.00  0.00    -0.275 N 
ATOM     11  C   UNL     1      99.952 134.084  54.454  0.00  0.00    +0.331 A 
ATOM     12  C   UNL     1      98.095 135.030  55.671  0.00  0.00    +0.098 A 
ATOM     13  C   UNL     1      97.429 135.312  54.549  0.00  0.00    +0.088 A 
ATOM     14  C   UNL     1      98.058 134.983  53.263  0.00  0.00    +0.254 A 
ATOM     15  H   UNL     1      99.635 134.041  52.447  0.00  0.00    +0.173 HD
ENDBRANCH   6   9
BRANCH   4  16
ATOM     16  O   UNL     1     102.120 134.458  58.913  0.00  0.00    -0.386 OA
ATOM     17  H   UNL     1     102.535 134.611  59.783  0.00  0.00    +0.210 HD
ENDBRANCH   4  16
BRANCH   5  18
ATOM     18  O   UNL     1     102.367 135.449  56.528  0.00  0.00    -0.385 OA
ATOM     19  H   UNL     1     102.361 134.528  56.175  0.00  0.00    +0.210 HD
ENDBRANCH   5  18
ENDBRANCH   1   3
BRANCH   1  21
ATOM     20  O   UNL     1     100.344 138.713  60.195  0.00  0.00    -0.274 OA
ATOM     21  N   UNL     1      98.968 136.987  60.750  0.00  0.00    -0.299 N 
ATOM     22  C   UNL     1      99.839 138.003  61.057  0.00  0.00    +0.231 C 
ATOM     23  H   UNL     1      98.748 136.401  61.559  0.00  0.00    +0.150 HD
BRANCH  22  24
ATOM     24  CA  UNL     1     100.146 138.201  62.564  0.00  0.00    +0.143 C 
BRANCH  24  25
ATOM     25  N   UNL     1     101.623 138.340  62.722  0.00  0.00    -0.320 NA
ATOM     26  H1  UNL     1     102.004 137.468  63.092  0.00  0.00    +0.119 HD
ATOM     27  H2  UNL     1     102.037 138.432  61.793  0.00  0.00    +0.119 HD
ENDBRANCH  24  25
BRANCH  24  28
ATOM     28  C   UNL     1      99.387 139.414  63.163  0.00  0.00    +0.046 C 
ATOM     29  C   UNL     1     100.316 140.325  63.995  0.00  0.00    +0.012 C 
BRANCH  28  30
ATOM     30  C   UNL     1      98.094 139.034  63.952  0.00  0.00    +0.168 C 
BRANCH  30  32
ATOM     31  N   UNL     1      96.630 138.476  62.047  0.00  0.00    -0.254 NA
ATOM     32  C   UNL     1      96.762 139.154  63.218  0.00  0.00    +0.070 A 
ATOM     33  C   UNL     1      95.683 139.815  63.810  0.00  0.00    +0.029 A 
ATOM     34  C   UNL     1      94.447 139.828  63.169  0.00  0.00    +0.049 A 
ATOM     35  C   UNL     1      95.411 138.493  61.453  0.00  0.00    +0.156 A 
ATOM     36  C   UNL     1      94.305 139.145  61.976  0.00  0.00    +0.135 A 
BRANCH  36  37
ATOM     37  O   UNL     1      93.080 139.131  61.383  0.00  0.00    -0.505 OA
ATOM     38  H   UNL     1      93.150 138.687  60.522  0.00  0.00    +0.292 HD
ENDBRANCH  36  37
ENDBRANCH  30  32
BRANCH  30  39
ATOM     39  O   UNL     1      98.214 137.666  64.385  0.00  0.00    -0.385 OA
ATOM     40  H   UNL     1      99.057 137.348  64.005  0.00  0.00    +0.210 HD
ENDBRANCH  30  39
ENDBRANCH  28  30
ENDBRANCH  24  28
ENDBRANCH  22  24
ENDBRANCH   1  21
BRANCH   1  42
ATOM     41  OXT UNL     1      96.577 136.444  58.499  0.00  0.00    -0.249 OA
ATOM     42  C   UNL     1      97.386 135.917  59.255  0.00  0.00    +0.328 C 
BRANCH  42  43
ATOM     43  O   UNL     1      97.066 134.848  60.024  0.00  0.00    -0.479 OA
ATOM     44  H   UNL     1      97.006 134.005  59.515  0.00  0.00    +0.295 HD
ENDBRANCH  42  43
ENDBRANCH   1  42
TORSDOF 14
ENDMDL
MODEL 3
REMARK VINA RESULT:    -5.582      1.786      2.171
REMARK INTER + INTRA:         -11.888
REMARK INTER:                  -9.306
REMARK INTRA:                  -2.582
REMARK UNBOUND:                -2.716
REMARK  Name = 456557
REMARK  15 active torsions:
REMARK  status: ('A' for Active; 'I' for Inactive)
REMARK    1  A    between atoms: O_2  and  C_17
REMARK    2  A    between atoms: O_3  and  C_18
REMARK    3  A    between atoms: O_4  and  C_22
REMARK    4  A    between atoms: O_7  and  C_27
REMARK    5  A    between atoms: O_10  and  C_35
REMARK    6  A    between atoms: N_11  and  C_19
REMARK    7  A    between atoms: N_12  and  CA_20
REMARK    8  A    between atoms: N_13  and  CA_21
REMARK    9  A    between atoms: C_16  and  CA_20
REMARK   10  A    between atoms: CA_20  and  C_22
REMARK   11  A    between atoms: CA_21  and  C_23
REMARK   12  A    between atoms: CA_21  and  C_24
REMARK   13  A    between atoms: C_23  and  C_27
REMARK   14  A    between atoms: C_23  and  C_28
REMARK   15  A    between atoms: C_27  and  C_30
REMARK                            x       y       z     vdW  Elec       q    Type
REMARK                         _______ _______ _______ _____ _____    ______ ____
ROOT
ATOM      1  CA  UNL     1      98.886 132.484  73.302  0.00  0.00    +0.213 C 
ENDROOT
BRANCH   1   3
ATOM      2  O   UNL     1      99.832 132.210  71.039  0.00  0.00    -0.345 OA
ATOM      3  C   UNL     1      99.442 131.497  72.243  0.00  0.00    +0.183 C 
ATOM      4  C   UNL     1     100.699 130.730  72.679  0.00  0.00    +0.178 C 
ATOM      5  C   UNL     1     101.842 131.607  72.179  0.00  0.00    +0.195 C 
ATOM      6  C   UNL     1     101.250 132.059  70.839  0.00  0.00    +0.255 C 
BRANCH   6   9
ATOM      7  O   UNL     1     103.766 132.349  69.647  0.00  0.00    -0.246 OA
ATOM      8  O   UNL     1     103.527 136.795  69.601  0.00  0.00    -0.268 OA
ATOM      9  N   UNL     1     101.749 133.303  70.260  0.00  0.00    -0.271 N 
ATOM     10  N   UNL     1     103.450 134.548  69.251  0.00  0.00    -0.275 N 
ATOM     11  C   UNL     1     103.014 133.325  69.690  0.00  0.00    +0.331 A 
ATOM     12  C   UNL     1     101.040 134.467  70.479  0.00  0.00    +0.098 A 
ATOM     13  C   UNL     1     101.556 135.669  70.209  0.00  0.00    +0.088 A 
ATOM     14  C   UNL     1     102.914 135.735  69.654  0.00  0.00    +0.254 A 
ATOM     15  H   UNL     1     104.403 134.598  68.926  0.00  0.00    +0.173 HD
ENDBRANCH   6   9
BRANCH   4  16
ATOM     16  O   UNL     1     100.837 129.480  71.957  0.00  0.00    -0.386 OA
ATOM     17  H   UNL     1     101.613 129.004  72.309  0.00  0.00    +0.210 HD
ENDBRANCH   4  16
BRANCH   5  18
ATOM     18  O   UNL     1     103.043 130.842  72.032  0.00  0.00    -0.385 OA
ATOM     19  H   UNL     1     103.419 130.784  72.942  0.00  0.00    +0.210 HD
ENDBRANCH   5  18
ENDBRANCH   1   3
BRANCH   1  21
ATOM     20  O   UNL     1      98.976 132.804  76.169  0.00  0.00    -0.274 OA
ATOM     21  N   UNL     1      97.962 131.950  74.319  0.00  0.00    -0.299 N 
ATOM     22  C   UNL     1      98.179 132.015  75.673  0.00  0.00    +0.231 C 
ATOM     23  H   UNL     1      97.380 131.152  74.053  0.00  0.00    +0.150 HD
BRANCH  22  24
ATOM     24  CA  UNL     1      97.356 131.029  76.541  0.00  0.00    +0.143 C 
BRANCH  24  25
ATOM     25  N   UNL     1      97.704 131.268  77.972  0.00  0.00    -0.320 NA
ATOM     26  H1  UNL     1      96.985 130.852  78.566  0.00  0.00    +0.119 HD
ATOM     27  H2  UNL     1      98.554 130.744  78.186  0.00  0.00    +0.119 HD
ENDBRANCH  24  25
BRANCH  24  28
ATOM     28  C   UNL     1      95.831 131.159  76.291  0.00  0.00    +0.046 C 
ATOM     29  C   UNL     1      95.034 131.262  77.611  0.00  0.00    +0.012 C 
BRANCH  28  30
ATOM     30  C   UNL     1      95.241 130.067  75.344  0.00  0.00    +0.168 C 
BRANCH  30  32
ATOM     31  N   UNL     1      95.254 131.107  73.108  0.00  0.00    -0.254 NA
ATOM     32  C   UNL     1      94.508 130.542  74.094  0.00  0.00    +0.070 A 
ATOM     33  C   UNL     1      93.150 130.266  73.920  0.00  0.00    +0.029 A 
ATOM     34  C   UNL     1      92.522 130.619  72.729  0.00  0.00    +0.049 A 
ATOM     35  C   UNL     1      94.619 131.427  71.953  0.00  0.00    +0.156 A 
ATOM     36  C   UNL     1      93.272 131.198  71.723  0.00  0.00    +0.135 A 
BRANCH  36  37
ATOM     37  O   UNL     1      92.653 131.498  70.548  0.00  0.00    -0.505 OA
ATOM     38  H   UNL     1      93.324 131.757  69.894  0.00  0.00    +0.292 HD
ENDBRANCH  36  37
ENDBRANCH  30  32
BRANCH  30  39
ATOM     39  O   UNL     1      96.320 129.220  74.904  0.00  0.00    -0.385 OA
ATOM     40  H   UNL     1      96.079 128.948  73.997  0.00  0.00    +0.210 HD
ENDBRANCH  30  39
ENDBRANCH  28  30
ENDBRANCH  24  28
ENDBRANCH  22  24
ENDBRANCH   1  21
BRANCH   1  42
ATOM     41  OXT UNL     1      98.312 134.803  72.772  0.00  0.00    -0.249 OA
ATOM     42  C   UNL     1      98.146 133.608  72.558  0.00  0.00    +0.328 C 
BRANCH  42  43
ATOM     43  O   UNL     1      97.287 133.155  71.611  0.00  0.00    -0.479 OA
ATOM     44  H   UNL     1      97.507 133.472  70.704  0.00  0.00    +0.295 HD
ENDBRANCH  42  43
ENDBRANCH   1  42
TORSDOF 14
ENDMDL
MODEL 4
REMARK VINA RESULT:    -5.573      1.814      2.994
REMARK INTER + INTRA:         -11.873
REMARK INTER:                  -9.250
REMARK INTRA:                  -2.623
REMARK UNBOUND:                -2.716
REMARK  Name = 456557
REMARK  15 active torsions:
REMARK  status: ('A' for Active; 'I' for Inactive)
REMARK    1  A    between atoms: O_2  and  C_17
REMARK    2  A    between atoms: O_3  and  C_18
REMARK    3  A    between atoms: O_4  and  C_22
REMARK    4  A    between atoms: O_7  and  C_27
REMARK    5  A    between atoms: O_10  and  C_35
REMARK    6  A    between atoms: N_11  and  C_19
REMARK    7  A    between atoms: N_12  and  CA_20
REMARK    8  A    between atoms: N_13  and  CA_21
REMARK    9  A    between atoms: C_16  and  CA_20
REMARK   10  A    between atoms: CA_20  and  C_22
REMARK   11  A    between atoms: CA_21  and  C_23
REMARK   12  A    between atoms: CA_21  and  C_24
REMARK   13  A    between atoms: C_23  and  C_27
REMARK   14  A    between atoms: C_23  and  C_28
REMARK   15  A    between atoms: C_27  and  C_30
REMARK                            x       y       z     vdW  Elec       q    Type
REMARK                         _______ _______ _______ _____ _____    ______ ____
ROOT
ATOM      1  CA  UNL     1     101.425 132.441  71.745  0.00  0.00    +0.213 C 
ENDROOT
BRANCH   1   3
ATOM      2  O   UNL     1     103.346 132.676  70.213  0.00  0.00    -0.345 OA
ATOM      3  C   UNL     1     102.969 132.438  71.595  0.00  0.00    +0.183 C 
ATOM      4  C   UNL     1     103.695 133.524  72.401  0.00  0.00    +0.178 C 
ATOM      5  C   UNL     1     103.795 134.687  71.420  0.00  0.00    +0.195 C 
ATOM      6  C   UNL     1     104.086 133.909  70.131  0.00  0.00    +0.255 C 
BRANCH   6   9
ATOM      7  O   UNL     1     105.685 135.806  68.836  0.00  0.00    -0.246 OA
ATOM      8  O   UNL     1     102.452 136.998  66.015  0.00  0.00    -0.268 OA
ATOM      9  N   UNL     1     103.746 134.545  68.862  0.00  0.00    -0.271 N 
ATOM     10  N   UNL     1     104.192 136.092  67.168  0.00  0.00    -0.275 N 
ATOM     11  C   UNL     1     104.622 135.469  68.310  0.00  0.00    +0.331 A 
ATOM     12  C   UNL     1     102.475 134.366  68.351  0.00  0.00    +0.098 A 
ATOM     13  C   UNL     1     102.009 135.111  67.345  0.00  0.00    +0.088 A 
ATOM     14  C   UNL     1     102.889 136.137  66.771  0.00  0.00    +0.254 A 
ATOM     15  H   UNL     1     104.773 136.835  66.813  0.00  0.00    +0.173 HD
ENDBRANCH   6   9
BRANCH   4  16
ATOM     16  O   UNL     1     105.066 133.150  72.688  0.00  0.00    -0.386 OA
ATOM     17  H   UNL     1     105.382 132.566  71.973  0.00  0.00    +0.210 HD
ENDBRANCH   4  16
BRANCH   5  18
ATOM     18  O   UNL     1     104.857 135.574  71.790  0.00  0.00    -0.385 OA
ATOM     19  H   UNL     1     104.454 136.192  72.444  0.00  0.00    +0.210 HD
ENDBRANCH   5  18
ENDBRANCH   1   3
BRANCH   1  21
ATOM     20  O   UNL     1     100.687 133.721  74.224  0.00  0.00    -0.274 OA
ATOM     21  N   UNL     1     100.853 131.836  72.961  0.00  0.00    -0.299 N 
ATOM     22  C   UNL     1     100.689 132.498  74.153  0.00  0.00    +0.231 C 
ATOM     23  H   UNL     1     100.974 130.828  73.086  0.00  0.00    +0.150 HD
BRANCH  22  24
ATOM     24  CA  UNL     1     100.507 131.604  75.406  0.00  0.00    +0.143 C 
BRANCH  24  25
ATOM     25  N   UNL     1     101.323 132.184  76.513  0.00  0.00    -0.320 NA
ATOM     26  H1  UNL     1     102.252 131.760  76.502  0.00  0.00    +0.119 HD
ATOM     27  H2  UNL     1     101.486 133.171  76.307  0.00  0.00    +0.119 HD
ENDBRANCH  24  25
BRANCH  24  28
ATOM     28  C   UNL     1      99.017 131.454  75.809  0.00  0.00    +0.046 C 
ATOM     29  C   UNL     1      98.843 131.289  77.335  0.00  0.00    +0.012 C 
BRANCH  28  30
ATOM     30  C   UNL     1      98.247 130.351  75.017  0.00  0.00    +0.168 C 
BRANCH  30  32
ATOM     31  N   UNL     1      97.812 131.005  72.679  0.00  0.00    -0.254 NA
ATOM     32  C   UNL     1      97.292 130.809  73.920  0.00  0.00    +0.070 A 
ATOM     33  C   UNL     1      95.917 130.877  74.158  0.00  0.00    +0.029 A 
ATOM     34  C   UNL     1      95.052 131.202  73.117  0.00  0.00    +0.049 A 
ATOM     35  C   UNL     1      96.945 131.304  71.680  0.00  0.00    +0.156 A 
ATOM     36  C   UNL     1      95.574 131.406  71.853  0.00  0.00    +0.135 A 
BRANCH  36  37
ATOM     37  O   UNL     1      94.711 131.680  70.836  0.00  0.00    -0.505 OA
ATOM     38  H   UNL     1      95.202 131.683  69.998  0.00  0.00    +0.292 HD
ENDBRANCH  36  37
ENDBRANCH  30  32
BRANCH  30  39
ATOM     39  O   UNL     1      99.214 129.481  74.398  0.00  0.00    -0.385 OA
ATOM     40  H   UNL     1      98.694 128.743  74.025  0.00  0.00    +0.210 HD
ENDBRANCH  30  39
ENDBRANCH  28  30
ENDBRANCH  24  28
ENDBRANCH  22  24
ENDBRANCH   1  21
BRANCH   1  42
ATOM     41  OXT UNL     1     100.015 132.176  69.763  0.00  0.00    -0.249 OA
ATOM     42  C   UNL     1     100.832 131.694  70.540  0.00  0.00    +0.328 C 
BRANCH  42  43
ATOM     43  O   UNL     1     101.312 130.435  70.395  0.00  0.00    -0.479 OA
ATOM     44  H   UNL     1     100.653 129.809  70.012  0.00  0.00    +0.295 HD
ENDBRANCH  42  43
ENDBRANCH   1  42
TORSDOF 14
ENDMDL
MODEL 5
REMARK VINA RESULT:    -5.523     12.520     14.367
REMARK INTER + INTRA:         -11.792
REMARK INTER:                  -9.095
REMARK INTRA:                  -2.696
REMARK UNBOUND:                -2.716
REMARK  Name = 456557
REMARK  15 active torsions:
REMARK  status: ('A' for Active; 'I' for Inactive)
REMARK    1  A    between atoms: O_2  and  C_17
REMARK    2  A    between atoms: O_3  and  C_18
REMARK    3  A    between atoms: O_4  and  C_22
REMARK    4  A    between atoms: O_7  and  C_27
REMARK    5  A    between atoms: O_10  and  C_35
REMARK    6  A    between atoms: N_11  and  C_19
REMARK    7  A    between atoms: N_12  and  CA_20
REMARK    8  A    between atoms: N_13  and  CA_21
REMARK    9  A    between atoms: C_16  and  CA_20
REMARK   10  A    between atoms: CA_20  and  C_22
REMARK   11  A    between atoms: CA_21  and  C_23
REMARK   12  A    between atoms: CA_21  and  C_24
REMARK   13  A    between atoms: C_23  and  C_27
REMARK   14  A    between atoms: C_23  and  C_28
REMARK   15  A    between atoms: C_27  and  C_30
REMARK                            x       y       z     vdW  Elec       q    Type
REMARK                         _______ _______ _______ _____ _____    ______ ____
ROOT
ATOM      1  CA  UNL     1      96.810 138.932  58.092  0.00  0.00    +0.213 C 
ENDROOT
BRANCH   1   3
ATOM      2  O   UNL     1      97.593 136.726  57.307  0.00  0.00    -0.345 OA
ATOM      3  C   UNL     1      96.425 137.469  57.749  0.00  0.00    +0.183 C 
ATOM      4  C   UNL     1      95.859 136.662  58.926  0.00  0.00    +0.178 C 
ATOM      5  C   UNL     1      97.092 135.994  59.525  0.00  0.00    +0.195 C 
ATOM      6  C   UNL     1      97.850 135.656  58.235  0.00  0.00    +0.255 C 
BRANCH   6   9
ATOM      7  O   UNL     1      99.302 133.729  56.815  0.00  0.00    -0.246 OA
ATOM      8  O   UNL     1     102.982 134.322  59.251  0.00  0.00    -0.268 OA
ATOM      9  N   UNL     1      99.297 135.484  58.323  0.00  0.00    -0.271 N 
ATOM     10  N   UNL     1     101.255 134.335  57.769  0.00  0.00    -0.275 N 
ATOM     11  C   UNL     1      99.910 134.497  57.565  0.00  0.00    +0.331 A 
ATOM     12  C   UNL     1      99.986 136.167  59.306  0.00  0.00    +0.098 A 
ATOM     13  C   UNL     1     101.252 135.871  59.614  0.00  0.00    +0.088 A 
ATOM     14  C   UNL     1     101.917 134.794  58.869  0.00  0.00    +0.254 A 
ATOM     15  H   UNL     1     101.694 133.558  57.300  0.00  0.00    +0.173 HD
ENDBRANCH   6   9
BRANCH   4  16
ATOM     16  O   UNL     1      95.019 135.572  58.470  0.00  0.00    -0.386 OA
ATOM     17  H   UNL     1      95.521 134.739  58.556  0.00  0.00    +0.210 HD
ENDBRANCH   4  16
BRANCH   5  18
ATOM     18  O   UNL     1      96.725 134.834  60.279  0.00  0.00    -0.385 OA
ATOM     19  H   UNL     1      97.096 134.989  61.180  0.00  0.00    +0.210 HD
ENDBRANCH   5  18
ENDBRANCH   1   3
BRANCH   1  21
ATOM     20  O   UNL     1      99.324 139.973  59.055  0.00  0.00    -0.274 OA
ATOM     21  N   UNL     1      97.215 139.229  59.477  0.00  0.00    -0.299 N 
ATOM     22  C   UNL     1      98.492 139.565  59.856  0.00  0.00    +0.231 C 
ATOM     23  H   UNL     1      96.690 138.773  60.228  0.00  0.00    +0.150 HD
BRANCH  22  24
ATOM     24  CA  UNL     1      98.819 139.396  61.362  0.00  0.00    +0.143 C 
BRANCH  24  25
ATOM     25  N   UNL     1     100.205 139.899  61.595  0.00  0.00    -0.320 NA
ATOM     26  H1  UNL     1     100.394 139.909  62.598  0.00  0.00    +0.119 HD
ATOM     27  H2  UNL     1     100.861 139.216  61.213  0.00  0.00    +0.119 HD
ENDBRANCH  24  25
BRANCH  24  28
ATOM     28  C   UNL     1      97.788 140.112  62.272  0.00  0.00    +0.046 C 
ATOM     29  C   UNL     1      98.468 141.039  63.302  0.00  0.00    +0.012 C 
BRANCH  28  30
ATOM     30  C   UNL     1      96.756 139.155  62.948  0.00  0.00    +0.168 C 
BRANCH  30  32
ATOM     31  N   UNL     1      94.771 138.954  61.500  0.00  0.00    -0.254 NA
ATOM     32  C   UNL     1      95.277 139.408  62.676  0.00  0.00    +0.070 A 
ATOM     33  C   UNL     1      94.456 139.953  63.667  0.00  0.00    +0.029 A 
ATOM     34  C   UNL     1      93.090 140.084  63.435  0.00  0.00    +0.049 A 
ATOM     35  C   UNL     1      93.434 139.081  61.307  0.00  0.00    +0.156 A 
ATOM     36  C   UNL     1      92.568 139.628  62.239  0.00  0.00    +0.135 A 
BRANCH  36  37
ATOM     37  O   UNL     1      91.224 139.724  62.044  0.00  0.00    -0.505 OA
ATOM     38  H   UNL     1      90.993 140.655  61.887  0.00  0.00    +0.292 HD
ENDBRANCH  36  37
ENDBRANCH  30  32
BRANCH  30  39
ATOM     39  O   UNL     1      97.039 137.810  62.519  0.00  0.00    -0.385 OA
ATOM     40  H   UNL     1      97.045 137.847  61.542  0.00  0.00    +0.210 HD
ENDBRANCH  30  39
ENDBRANCH  28  30
ENDBRANCH  24  28
ENDBRANCH  22  24
ENDBRANCH   1  21
BRANCH   1  42
ATOM     41  OXT UNL     1      95.004 139.816  56.697  0.00  0.00    -0.249 OA
ATOM     42  C   UNL     1      95.602 139.826  57.767  0.00  0.00    +0.328 C 
BRANCH  42  43
ATOM     43  O   UNL     1      95.236 140.633  58.793  0.00  0.00    -0.479 OA
ATOM     44  H   UNL     1      95.879 140.628  59.541  0.00  0.00    +0.295 HD
ENDBRANCH  42  43
ENDBRANCH   1  42
TORSDOF 14
ENDMDL
MODEL 6
REMARK VINA RESULT:    -5.445      2.575      8.621
REMARK INTER + INTRA:         -11.662
REMARK INTER:                  -9.767
REMARK INTRA:                  -1.895
REMARK UNBOUND:                -2.716
REMARK  Name = 456557
REMARK  15 active torsions:
REMARK  status: ('A' for Active; 'I' for Inactive)
REMARK    1  A    between atoms: O_2  and  C_17
REMARK    2  A    between atoms: O_3  and  C_18
REMARK    3  A    between atoms: O_4  and  C_22
REMARK    4  A    between atoms: O_7  and  C_27
REMARK    5  A    between atoms: O_10  and  C_35
REMARK    6  A    between atoms: N_11  and  C_19
REMARK    7  A    between atoms: N_12  and  CA_20
REMARK    8  A    between atoms: N_13  and  CA_21
REMARK    9  A    between atoms: C_16  and  CA_20
REMARK   10  A    between atoms: CA_20  and  C_22
REMARK   11  A    between atoms: CA_21  and  C_23
REMARK   12  A    between atoms: CA_21  and  C_24
REMARK   13  A    between atoms: C_23  and  C_27
REMARK   14  A    between atoms: C_23  and  C_28
REMARK   15  A    between atoms: C_27  and  C_30
REMARK                            x       y       z     vdW  Elec       q    Type
REMARK                         _______ _______ _______ _____ _____    ______ ____
ROOT
ATOM      1  CA  UNL     1      97.528 131.613  73.049  0.00  0.00    +0.213 C 
ENDROOT
BRANCH   1   3
ATOM      2  O   UNL     1      95.346 130.706  72.335  0.00  0.00    -0.345 OA
ATOM      3  C   UNL     1      96.603 131.255  71.857  0.00  0.00    +0.183 C 
ATOM      4  C   UNL     1      96.209 132.446  70.972  0.00  0.00    +0.178 C 
ATOM      5  C   UNL     1      94.902 132.931  71.590  0.00  0.00    +0.195 C 
ATOM      6  C   UNL     1      94.271 131.579  71.944  0.00  0.00    +0.255 C 
BRANCH   6   9
ATOM      7  O   UNL     1      91.881 130.126  71.836  0.00  0.00    -0.246 OA
ATOM      8  O   UNL     1      90.134 132.224  75.353  0.00  0.00    -0.268 OA
ATOM      9  N   UNL     1      93.272 131.554  73.009  0.00  0.00    -0.271 N 
ATOM     10  N   UNL     1      91.193 130.890  73.845  0.00  0.00    -0.275 N 
ATOM     11  C   UNL     1      92.125 130.790  72.845  0.00  0.00    +0.331 A 
ATOM     12  C   UNL     1      93.396 132.448  74.055  0.00  0.00    +0.098 A 
ATOM     13  C   UNL     1      92.402 132.663  74.920  0.00  0.00    +0.088 A 
ATOM     14  C   UNL     1      91.152 131.911  74.746  0.00  0.00    +0.254 A 
ATOM     15  H   UNL     1      90.314 130.419  73.692  0.00  0.00    +0.173 HD
ENDBRANCH   6   9
BRANCH   4  16
ATOM     16  O   UNL     1      95.860 132.020  69.630  0.00  0.00    -0.386 OA
ATOM     17  H   UNL     1      95.800 132.811  69.061  0.00  0.00    +0.210 HD
ENDBRANCH   4  16
BRANCH   5  18
ATOM     18  O   UNL     1      94.135 133.675  70.637  0.00  0.00    -0.385 OA
ATOM     19  H   UNL     1      94.286 133.217  69.777  0.00  0.00    +0.210 HD
ENDBRANCH   5  18
ENDBRANCH   1   3
BRANCH   1  21
ATOM     20  O   UNL     1      99.633 133.080  71.728  0.00  0.00    -0.274 OA
ATOM     21  N   UNL     1      98.958 131.273  72.935  0.00  0.00    -0.299 N 
ATOM     22  C   UNL     1      99.854 131.948  72.143  0.00  0.00    +0.231 C 
ATOM     23  H   UNL     1      99.222 130.295  73.079  0.00  0.00    +0.150 HD
BRANCH  22  24
ATOM     24  CA  UNL     1     101.164 131.193  71.804  0.00  0.00    +0.143 C 
BRANCH  24  25
ATOM     25  N   UNL     1     100.899 129.729  71.914  0.00  0.00    -0.320 NA
ATOM     26  H1  UNL     1     100.169 129.470  71.249  0.00  0.00    +0.119 HD
ATOM     27  H2  UNL     1     101.730 129.229  71.595  0.00  0.00    +0.119 HD
ENDBRANCH  24  25
BRANCH  24  28
ATOM     28  C   UNL     1     101.717 131.573  70.406  0.00  0.00    +0.046 C 
ATOM     29  C   UNL     1     102.201 130.336  69.618  0.00  0.00    +0.012 C 
BRANCH  28  30
ATOM     30  C   UNL     1     102.796 132.702  70.429  0.00  0.00    +0.168 C 
BRANCH  30  32
ATOM     31  N   UNL     1     103.920 134.372  69.005  0.00  0.00    -0.254 NA
ATOM     32  C   UNL     1     102.759 133.732  69.305  0.00  0.00    +0.070 A 
ATOM     33  C   UNL     1     101.610 133.894  68.526  0.00  0.00    +0.029 A 
ATOM     34  C   UNL     1     101.629 134.767  67.443  0.00  0.00    +0.049 A 
ATOM     35  C   UNL     1     103.914 135.205  67.934  0.00  0.00    +0.156 A 
ATOM     36  C   UNL     1     102.804 135.425  67.133  0.00  0.00    +0.135 A 
BRANCH  36  37
ATOM     37  O   UNL     1     102.819 136.242  66.045  0.00  0.00    -0.505 OA
ATOM     38  H   UNL     1     103.229 135.771  65.301  0.00  0.00    +0.292 HD
ENDBRANCH  36  37
ENDBRANCH  30  32
BRANCH  30  39
ATOM     39  O   UNL     1     102.667 133.425  71.668  0.00  0.00    -0.385 OA
ATOM     40  H   UNL     1     102.098 132.867  72.233  0.00  0.00    +0.210 HD
ENDBRANCH  30  39
ENDBRANCH  28  30
ENDBRANCH  24  28
ENDBRANCH  22  24
ENDBRANCH   1  21
BRANCH   1  42
ATOM     41  OXT UNL     1      96.460 131.467  75.247  0.00  0.00    -0.249 OA
ATOM     42  C   UNL     1      96.987 130.897  74.298  0.00  0.00    +0.328 C 
BRANCH  42  43
ATOM     43  O   UNL     1      97.130 129.549  74.253  0.00  0.00    -0.479 OA
ATOM     44  H   UNL     1      97.413 129.218  73.369  0.00  0.00    +0.295 HD
ENDBRANCH  42  43
ENDBRANCH   1  42
TORSDOF 14
ENDMDL
MODEL 7
REMARK VINA RESULT:    -5.440     13.307     16.348
REMARK INTER + INTRA:         -11.655
REMARK INTER:                  -9.167
REMARK INTRA:                  -2.488
REMARK UNBOUND:                -2.716
REMARK  Name = 456557
REMARK  15 active torsions:
REMARK  status: ('A' for Active; 'I' for Inactive)
REMARK    1  A    between atoms: O_2  and  C_17
REMARK    2  A    between atoms: O_3  and  C_18
REMARK    3  A    between atoms: O_4  and  C_22
REMARK    4  A    between atoms: O_7  and  C_27
REMARK    5  A    between atoms: O_10  and  C_35
REMARK    6  A    between atoms: N_11  and  C_19
REMARK    7  A    between atoms: N_12  and  CA_20
REMARK    8  A    between atoms: N_13  and  CA_21
REMARK    9  A    between atoms: C_16  and  CA_20
REMARK   10  A    between atoms: CA_20  and  C_22
REMARK   11  A    between atoms: CA_21  and  C_23
REMARK   12  A    between atoms: CA_21  and  C_24
REMARK   13  A    between atoms: C_23  and  C_27
REMARK   14  A    between atoms: C_23  and  C_28
REMARK   15  A    between atoms: C_27  and  C_30
REMARK                            x       y       z     vdW  Elec       q    Type
REMARK                         _______ _______ _______ _____ _____    ______ ____
ROOT
ATOM      1  CA  UNL     1      98.258 138.527  59.870  0.00  0.00    +0.213 C 
ENDROOT
BRANCH   1   3
ATOM      2  O   UNL     1      95.861 137.985  60.096  0.00  0.00    -0.345 OA
ATOM      3  C   UNL     1      97.205 137.467  60.284  0.00  0.00    +0.183 C 
ATOM      4  C   UNL     1      97.249 136.166  59.471  0.00  0.00    +0.178 C 
ATOM      5  C   UNL     1      96.263 136.422  58.336  0.00  0.00    +0.195 C 
ATOM      6  C   UNL     1      95.182 137.189  59.107  0.00  0.00    +0.255 C 
BRANCH   6   9
ATOM      7  O   UNL     1      92.934 136.346  57.667  0.00  0.00    -0.246 OA
ATOM      8  O   UNL     1      92.530 140.221  55.512  0.00  0.00    -0.268 OA
ATOM      9  N   UNL     1      94.308 138.079  58.347  0.00  0.00    -0.271 N 
ATOM     10  N   UNL     1      92.498 138.427  56.910  0.00  0.00    -0.275 N 
ATOM     11  C   UNL     1      93.217 137.546  57.676  0.00  0.00    +0.331 A 
ATOM     12  C   UNL     1      94.706 139.386  58.148  0.00  0.00    +0.098 A 
ATOM     13  C   UNL     1      94.100 140.179  57.260  0.00  0.00    +0.088 A 
ATOM     14  C   UNL     1      92.974 139.633  56.492  0.00  0.00    +0.254 A 
ATOM     15  H   UNL     1      91.764 138.036  56.340  0.00  0.00    +0.173 HD
ENDBRANCH   6   9
BRANCH   4  16
ATOM     16  O   UNL     1      96.693 135.053  60.214  0.00  0.00    -0.386 OA
ATOM     17  H   UNL     1      97.231 134.259  60.032  0.00  0.00    +0.210 HD
ENDBRANCH   4  16
BRANCH   5  18
ATOM     18  O   UNL     1      95.790 135.188  57.787  0.00  0.00    -0.385 OA
ATOM     19  H   UNL     1      95.328 134.738  58.533  0.00  0.00    +0.210 HD
ENDBRANCH   5  18
ENDBRANCH   1   3
BRANCH   1  21
ATOM     20  O   UNL     1      99.882 138.461  57.486  0.00  0.00    -0.274 OA
ATOM     21  N   UNL     1      99.655 138.083  59.718  0.00  0.00    -0.299 N 
ATOM     22  C   UNL     1     100.292 137.930  58.511  0.00  0.00    +0.231 C 
ATOM     23  H   UNL     1     100.035 137.467  60.442  0.00  0.00    +0.150 HD
BRANCH  22  24
ATOM     24  CA  UNL     1     101.565 137.045  58.522  0.00  0.00    +0.143 C 
BRANCH  24  25
ATOM     25  N   UNL     1     102.522 137.620  59.511  0.00  0.00    -0.320 NA
ATOM     26  H1  UNL     1     102.838 138.533  59.180  0.00  0.00    +0.119 HD
ATOM     27  H2  UNL     1     102.012 137.818  60.373  0.00  0.00    +0.119 HD
ENDBRANCH  24  25
BRANCH  24  28
ATOM     28  C   UNL     1     101.244 135.559  58.830  0.00  0.00    +0.046 C 
ATOM     29  C   UNL     1     101.897 135.086  60.147  0.00  0.00    +0.012 C 
BRANCH  28  30
ATOM     30  C   UNL     1     101.547 134.581  57.651  0.00  0.00    +0.168 C 
BRANCH  30  32
ATOM     31  N   UNL     1     101.194 134.393  55.218  0.00  0.00    -0.254 NA
ATOM     32  C   UNL     1     100.635 134.646  56.431  0.00  0.00    +0.070 A 
ATOM     33  C   UNL     1      99.256 134.812  56.583  0.00  0.00    +0.029 A 
ATOM     34  C   UNL     1      98.429 134.769  55.464  0.00  0.00    +0.049 A 
ATOM     35  C   UNL     1     100.363 134.341  54.147  0.00  0.00    +0.156 A 
ATOM     36  C   UNL     1      98.990 134.516  54.227  0.00  0.00    +0.135 A 
BRANCH  36  37
ATOM     37  O   UNL     1      98.164 134.434  53.148  0.00  0.00    -0.505 OA
ATOM     38  H   UNL     1      98.665 134.089  52.391  0.00  0.00    +0.292 HD
ENDBRANCH  36  37
ENDBRANCH  30  32
BRANCH  30  39
ATOM     39  O   UNL     1     102.888 134.831  57.189  0.00  0.00    -0.385 OA
ATOM     40  H   UNL     1     102.975 135.805  57.167  0.00  0.00    +0.210 HD
ENDBRANCH  30  39
ENDBRANCH  28  30
ENDBRANCH  24  28
ENDBRANCH  22  24
ENDBRANCH   1  21
BRANCH   1  42
ATOM     41  OXT UNL     1      99.167 139.866  61.707  0.00  0.00    -0.249 OA
ATOM     42  C   UNL     1      98.246 139.642  60.929  0.00  0.00    +0.328 C 
BRANCH  42  43
ATOM     43  O   UNL     1      97.113 140.386  60.918  0.00  0.00    -0.479 OA
ATOM     44  H   UNL     1      97.248 141.307  61.243  0.00  0.00    +0.295 HD
ENDBRANCH  42  43
ENDBRANCH   1  42
TORSDOF 14
ENDMDL
MODEL 8
REMARK VINA RESULT:    -5.385      2.613      7.518
REMARK INTER + INTRA:         -11.564
REMARK INTER:                  -9.190
REMARK INTRA:                  -2.374
REMARK UNBOUND:                -2.716
REMARK  Name = 456557
REMARK  15 active torsions:
REMARK  status: ('A' for Active; 'I' for Inactive)
REMARK    1  A    between atoms: O_2  and  C_17
REMARK    2  A    between atoms: O_3  and  C_18
REMARK    3  A    between atoms: O_4  and  C_22
REMARK    4  A    between atoms: O_7  and  C_27
REMARK    5  A    between atoms: O_10  and  C_35
REMARK    6  A    between atoms: N_11  and  C_19
REMARK    7  A    between atoms: N_12  and  CA_20
REMARK    8  A    between atoms: N_13  and  CA_21
REMARK    9  A    between atoms: C_16  and  CA_20
REMARK   10  A    between atoms: CA_20  and  C_22
REMARK   11  A    between atoms: CA_21  and  C_23
REMARK   12  A    between atoms: CA_21  and  C_24
REMARK   13  A    between atoms: C_23  and  C_27
REMARK   14  A    between atoms: C_23  and  C_28
REMARK   15  A    between atoms: C_27  and  C_30
REMARK                            x       y       z     vdW  Elec       q    Type
REMARK                         _______ _______ _______ _____ _____    ______ ____
ROOT
ATOM      1  CA  UNL     1      96.724 131.060  74.703  0.00  0.00    +0.213 C 
ENDROOT
BRANCH   1   3
ATOM      2  O   UNL     1      94.885 130.597  73.124  0.00  0.00    -0.345 OA
ATOM      3  C   UNL     1      96.330 130.657  73.258  0.00  0.00    +0.183 C 
ATOM      4  C   UNL     1      96.792 131.637  72.170  0.00  0.00    +0.178 C 
ATOM      5  C   UNL     1      95.609 132.587  72.021  0.00  0.00    +0.195 C 
ATOM      6  C   UNL     1      94.458 131.586  72.169  0.00  0.00    +0.255 C 
BRANCH   6   9
ATOM      7  O   UNL     1      92.557 132.754  70.478  0.00  0.00    -0.246 OA
ATOM      8  O   UNL     1      90.151 134.369  73.859  0.00  0.00    -0.268 OA
ATOM      9  N   UNL     1      93.164 132.099  72.612  0.00  0.00    -0.271 N 
ATOM     10  N   UNL     1      91.145 133.195  72.183  0.00  0.00    -0.275 N 
ATOM     11  C   UNL     1      92.299 132.652  71.680  0.00  0.00    +0.331 A 
ATOM     12  C   UNL     1      92.924 132.207  73.968  0.00  0.00    +0.098 A 
ATOM     13  C   UNL     1      91.885 132.896  74.447  0.00  0.00    +0.088 A 
ATOM     14  C   UNL     1      90.977 133.542  73.490  0.00  0.00    +0.254 A 
ATOM     15  H   UNL     1      90.556 133.688  71.530  0.00  0.00    +0.173 HD
ENDBRANCH   6   9
BRANCH   4  16
ATOM     16  O   UNL     1      96.918 130.982  70.882  0.00  0.00    -0.386 OA
ATOM     17  H   UNL     1      96.448 131.519  70.216  0.00  0.00    +0.210 HD
ENDBRANCH   4  16
BRANCH   5  18
ATOM     18  O   UNL     1      95.632 133.230  70.743  0.00  0.00    -0.385 OA
ATOM     19  H   UNL     1      94.719 133.119  70.386  0.00  0.00    +0.210 HD
ENDBRANCH   5  18
ENDBRANCH   1   3
BRANCH   1  21
ATOM     20  O   UNL     1      98.962 132.849  75.049  0.00  0.00    -0.274 OA
ATOM     21  N   UNL     1      98.093 130.749  75.153  0.00  0.00    -0.299 N 
ATOM     22  C   UNL     1      99.138 131.639  75.127  0.00  0.00    +0.231 C 
ATOM     23  H   UNL     1      98.404 129.777  75.076  0.00  0.00    +0.150 HD
BRANCH  22  24
ATOM     24  CA  UNL     1     100.558 131.022  75.202  0.00  0.00    +0.143 C 
BRANCH  24  25
ATOM     25  N   UNL     1     100.432 129.629  75.723  0.00  0.00    -0.320 NA
ATOM     26  H1  UNL     1     100.560 129.637  76.735  0.00  0.00    +0.119 HD
ATOM     27  H2  UNL     1      99.468 129.322  75.585  0.00  0.00    +0.119 HD
ENDBRANCH  24  25
BRANCH  24  28
ATOM     28  C   UNL     1     101.289 131.060  73.834  0.00  0.00    +0.046 C 
ATOM     29  C   UNL     1     102.001 132.409  73.595  0.00  0.00    +0.012 C 
BRANCH  28  30
ATOM     30  C   UNL     1     100.395 130.654  72.619  0.00  0.00    +0.168 C 
BRANCH  30  32
ATOM     31  N   UNL     1      99.876 132.455  71.017  0.00  0.00    -0.254 NA
ATOM     32  C   UNL     1     100.644 131.369  71.295  0.00  0.00    +0.070 A 
ATOM     33  C   UNL     1     101.717 131.001  70.480  0.00  0.00    +0.029 A 
ATOM     34  C   UNL     1     101.987 131.729  69.325  0.00  0.00    +0.049 A 
ATOM     35  C   UNL     1     100.171 133.155  69.893  0.00  0.00    +0.156 A 
ATOM     36  C   UNL     1     101.209 132.833  69.033  0.00  0.00    +0.135 A 
BRANCH  36  37
ATOM     37  O   UNL     1     101.512 133.560  67.923  0.00  0.00    -0.505 OA
ATOM     38  H   UNL     1     101.227 134.479  68.059  0.00  0.00    +0.292 HD
ENDBRANCH  36  37
ENDBRANCH  30  32
BRANCH  30  39
ATOM     39  O   UNL     1     100.573 129.246  72.378  0.00  0.00    -0.385 OA
ATOM     40  H   UNL     1     100.770 128.858  73.253  0.00  0.00    +0.210 HD
ENDBRANCH  30  39
ENDBRANCH  28  30
ENDBRANCH  24  28
ENDBRANCH  22  24
ENDBRANCH   1  21
BRANCH   1  42
ATOM     41  OXT UNL     1      95.284 130.882  76.674  0.00  0.00    -0.249 OA
ATOM     42  C   UNL     1      95.755 130.360  75.669  0.00  0.00    +0.328 C 
BRANCH  42  43
ATOM     43  O   UNL     1      95.446 129.092  75.301  0.00  0.00    -0.479 OA
ATOM     44  H   UNL     1      96.179 128.636  74.825  0.00  0.00    +0.295 HD
ENDBRANCH  42  43
ENDBRANCH   1  42
TORSDOF 14
ENDMDL
MODEL 9
REMARK VINA RESULT:    -5.340      9.504     14.052
REMARK INTER + INTRA:         -11.491
REMARK INTER:                  -9.438
REMARK INTRA:                  -2.053
REMARK UNBOUND:                -2.716
REMARK  Name = 456557
REMARK  15 active torsions:
REMARK  status: ('A' for Active; 'I' for Inactive)
REMARK    1  A    between atoms: O_2  and  C_17
REMARK    2  A    between atoms: O_3  and  C_18
REMARK    3  A    between atoms: O_4  and  C_22
REMARK    4  A    between atoms: O_7  and  C_27
REMARK    5  A    between atoms: O_10  and  C_35
REMARK    6  A    between atoms: N_11  and  C_19
REMARK    7  A    between atoms: N_12  and  CA_20
REMARK    8  A    between atoms: N_13  and  CA_21
REMARK    9  A    between atoms: C_16  and  CA_20
REMARK   10  A    between atoms: CA_20  and  C_22
REMARK   11  A    between atoms: CA_21  and  C_23
REMARK   12  A    between atoms: CA_21  and  C_24
REMARK   13  A    between atoms: C_23  and  C_27
REMARK   14  A    between atoms: C_23  and  C_28
REMARK   15  A    between atoms: C_27  and  C_30
REMARK                            x       y       z     vdW  Elec       q    Type
REMARK                         _______ _______ _______ _____ _____    ______ ____
ROOT
ATOM      1  CA  UNL     1      98.044 136.772  59.747  0.00  0.00    +0.213 C 
ENDROOT
BRANCH   1   3
ATOM      2  O   UNL     1      99.057 134.935  58.445  0.00  0.00    -0.345 OA
ATOM      3  C   UNL     1      99.304 135.901  59.501  0.00  0.00    +0.183 C 
ATOM      4  C   UNL     1     100.545 136.682  59.045  0.00  0.00    +0.178 C 
ATOM      5  C   UNL     1     100.454 136.638  57.524  0.00  0.00    +0.195 C 
ATOM      6  C   UNL     1      99.940 135.206  57.341  0.00  0.00    +0.255 C 
BRANCH   6   9
ATOM      7  O   UNL     1     101.156 134.354  54.967  0.00  0.00    -0.246 OA
ATOM      8  O   UNL     1      97.482 135.011  52.538  0.00  0.00    -0.268 OA
ATOM      9  N   UNL     1      99.218 134.895  56.110  0.00  0.00    -0.271 N 
ATOM     10  N   UNL     1      99.195 134.292  53.852  0.00  0.00    -0.275 N 
ATOM     11  C   UNL     1      99.929 134.475  54.995  0.00  0.00    +0.331 A 
ATOM     12  C   UNL     1      97.879 135.224  56.027  0.00  0.00    +0.098 A 
ATOM     13  C   UNL     1      97.222 135.211  54.865  0.00  0.00    +0.088 A 
ATOM     14  C   UNL     1      97.955 134.823  53.653  0.00  0.00    +0.254 A 
ATOM     15  H   UNL     1      99.711 134.084  53.012  0.00  0.00    +0.173 HD
ENDBRANCH   6   9
BRANCH   4  16
ATOM     16  O   UNL     1     101.769 135.978  59.374  0.00  0.00    -0.386 OA
ATOM     17  H   UNL     1     102.510 136.612  59.335  0.00  0.00    +0.210 HD
ENDBRANCH   4  16
BRANCH   5  18
ATOM     18  O   UNL     1     101.740 136.852  56.932  0.00  0.00    -0.385 OA
ATOM     19  H   UNL     1     101.557 137.346  56.099  0.00  0.00    +0.210 HD
ENDBRANCH   5  18
ENDBRANCH   1   3
BRANCH   1  21
ATOM     20  O   UNL     1      98.850 139.434  60.518  0.00  0.00    -0.274 OA
ATOM     21  N   UNL     1      97.912 137.432  61.058  0.00  0.00    -0.299 N 
ATOM     22  C   UNL     1      98.476 138.643  61.376  0.00  0.00    +0.231 C 
ATOM     23  H   UNL     1      97.786 136.831  61.876  0.00  0.00    +0.150 HD
BRANCH  22  24
ATOM     24  CA  UNL     1      98.613 138.952  62.889  0.00  0.00    +0.143 C 
BRANCH  24  25
ATOM     25  N   UNL     1      97.586 138.154  63.620  0.00  0.00    -0.320 NA
ATOM     26  H1  UNL     1      98.034 137.656  64.391  0.00  0.00    +0.119 HD
ATOM     27  H2  UNL     1      96.939 138.803  64.071  0.00  0.00    +0.119 HD
ENDBRANCH  24  25
BRANCH  24  28
ATOM     28  C   UNL     1     100.043 138.671  63.419  0.00  0.00    +0.046 C 
ATOM     29  C   UNL     1     100.743 137.543  62.629  0.00  0.00    +0.012 C 
BRANCH  28  30
ATOM     30  C   UNL     1     100.120 138.431  64.960  0.00  0.00    +0.168 C 
BRANCH  30  32
ATOM     31  N   UNL     1     101.711 136.953  66.129  0.00  0.00    -0.254 NA
ATOM     32  C   UNL     1     101.496 138.170  65.563  0.00  0.00    +0.070 A 
ATOM     33  C   UNL     1     102.529 139.097  65.402  0.00  0.00    +0.029 A 
ATOM     34  C   UNL     1     103.804 138.797  65.874  0.00  0.00    +0.049 A 
ATOM     35  C   UNL     1     102.966 136.682  66.566  0.00  0.00    +0.156 A 
ATOM     36  C   UNL     1     104.029 137.564  66.454  0.00  0.00    +0.135 A 
BRANCH  36  37
ATOM     37  O   UNL     1     105.291 137.268  66.871  0.00  0.00    -0.505 OA
ATOM     38  H   UNL     1     105.709 136.678  66.222  0.00  0.00    +0.292 HD
ENDBRANCH  36  37
ENDBRANCH  30  32
BRANCH  30  39
ATOM     39  O   UNL     1      99.580 139.588  65.625  0.00  0.00    -0.385 OA
ATOM     40  H   UNL     1      99.280 139.267  66.498  0.00  0.00    +0.210 HD
ENDBRANCH  30  39
ENDBRANCH  28  30
ENDBRANCH  24  28
ENDBRANCH  22  24
ENDBRANCH   1  21
BRANCH   1  42
ATOM     41  OXT UNL     1      95.879 136.134  58.802  0.00  0.00    -0.249 OA
ATOM     42  C   UNL     1      96.809 135.877  59.559  0.00  0.00    +0.328 C 
BRANCH  42  43
ATOM     43  O   UNL     1      96.841 134.745  60.305  0.00  0.00    -0.479 OA
ATOM     44  H   UNL     1      97.663 134.659  60.844  0.00  0.00    +0.295 HD
ENDBRANCH  42  43
ENDBRANCH   1  42
TORSDOF 14
ENDMDL
