MODEL 1
REMARK minimizedAffinity -7.07039499
REMARK minimizedRMSD -1
REMARK  28 active torsions:
REMARK  status: ('A' for Active; 'I' for Inactive)
REMARK    1  A    between atoms: C2_2  and  C3_3 
REMARK    2  A    between atoms: C3_3  and  C4_4 
REMARK    3  A    between atoms: C4_4  and  C5_5 
REMARK    4  A    between atoms: C5_5  and  O1_6 
REMARK    5  A    between atoms: O1_6  and  C6_7 
REMARK    6  A    between atoms: C9_10  and  C12_13 
REMARK    7  A    between atoms: C14_15  and  C15_18 
REMARK    8  A    between atoms: C18_21  and  C21_24 
REMARK       I    between atoms: C21_24  and  N2_26 
REMARK    9  A    between atoms: N2_26  and  C22_27 
REMARK   10  A    between atoms: C24_29  and  O23_89 
REMARK   11  A    between atoms: C25_30  and  O22_88 
REMARK   12  A    between atoms: C28_35  and  O21_87 
REMARK   13  A    between atoms: C32_41  and  C53_80 
REMARK   14  A    between atoms: C34_45  and  C45_64 
REMARK   15  A    between atoms: C38_51  and  O11_63 
REMARK   16  A    between atoms: C41_56  and  C43_60 
REMARK   17  A    between atoms: C43_60  and  O10_62 
REMARK   18  A    between atoms: C45_64  and  C46_65 
REMARK   19  A    between atoms: C45_64  and  O18_79 
REMARK   20  A    between atoms: C46_65  and  C47_66 
REMARK   21  A    between atoms: C46_65  and  O17_78 
REMARK   22  A    between atoms: C49_68  and  O13_73 
REMARK   23  A    between atoms: C50_69  and  O12_72 
REMARK   24  A    between atoms: O13_73  and  S1_74 
REMARK   25  A    between atoms: S1_74  and  O16_77 
REMARK   26  A    between atoms: C53_80  and  C54_81 
REMARK   27  A    between atoms: C53_80  and  O20_85 
REMARK   28  A    between atoms: C54_81  and  C55_82 
REMARK       I    between atoms: C55_82  and  N9_84 
ROOT
HETATM    1  C22 UNL     1     100.014 139.392  63.004  1.00  0.00     0.179 C 
HETATM    2  C23 UNL     1      98.549 139.724  63.383  1.00  0.00     0.071 C 
HETATM    3  C24 UNL     1      97.547 138.533  63.334  1.00  0.00     0.169 C 
HETATM    4  C25 UNL     1      96.652 138.564  62.066  1.00  0.00     0.249 C 
HETATM    5  N3  UNL     1      95.422 139.337  62.284  1.00  0.00    -0.331 N 
HETATM    6  C26 UNL     1      95.198 140.604  61.656  1.00  0.00     0.245 C 
HETATM    7  O4  UNL     1      96.135 141.444  61.577  1.00  0.00    -0.271 OA
HETATM    8  C27 UNL     1      93.864 140.909  61.020  1.00  0.00     0.208 C 
HETATM    9  C28 UNL     1      93.288 142.245  61.521  1.00  0.00     0.155 C 
HETATM   10  C29 UNL     1      93.378 143.222  60.327  1.00  0.00     0.031 C 
HETATM   11  C30 UNL     1      94.040 142.452  59.181  1.00  0.00     0.134 C 
HETATM   12  N4  UNL     1      94.038 141.052  59.579  1.00  0.00    -0.334 N 
HETATM   13  C31 UNL     1      94.383 139.919  58.741  1.00  0.00     0.246 C 
HETATM   14  O5  UNL     1      94.761 138.854  59.301  1.00  0.00    -0.271 OA
HETATM   15  C32 UNL     1      94.226 139.873  57.227  1.00  0.00     0.206 C 
HETATM   16  N5  UNL     1      94.894 140.981  56.534  1.00  0.00    -0.344 N 
HETATM   17  C33 UNL     1      95.334 140.820  55.178  1.00  0.00     0.243 C 
HETATM   18  O6  UNL     1      94.479 140.767  54.255  1.00  0.00    -0.271 OA
HETATM   19  C34 UNL     1      96.811 140.740  54.833  1.00  0.00     0.208 C 
HETATM   20  N6  UNL     1      97.652 140.777  56.036  1.00  0.00    -0.344 N 
HETATM   21  C35 UNL     1      98.992 141.303  56.026  1.00  0.00     0.241 C 
HETATM   22  O7  UNL     1      99.548 141.591  54.933  1.00  0.00    -0.271 OA
HETATM   23  C36 UNL     1      99.719 141.603  57.315  1.00  0.00     0.181 C 
HETATM   24  C37 UNL     1      99.353 142.995  57.827  1.00  0.00     0.068 C 
HETATM   25  C38 UNL     1      98.235 142.765  58.847  1.00  0.00     0.138 C 
HETATM   26  C39 UNL     1      98.445 141.343  59.361  1.00  0.00     0.158 C 
HETATM   27  N7  UNL     1      99.294 140.702  58.374  1.00  0.00    -0.334 N 
HETATM   28  C40 UNL     1      99.865 139.408  58.587  1.00  0.00     0.246 C 
HETATM   29  O8  UNL     1      99.195 138.382  58.293  1.00  0.00    -0.271 OA
HETATM   30  C41 UNL     1     101.214 139.292  59.255  1.00  0.00     0.205 C 
HETATM   31  N8  UNL     1     101.105 139.548  60.699  1.00  0.00    -0.344 N 
HETATM   32  C42 UNL     1     100.184 138.890  61.590  1.00  0.00     0.241 C 
HETATM   33  O9  UNL     1      99.562 137.861  61.212  1.00  0.00    -0.271 OA
HETATM   34  C56 UNL     1      94.151 144.499  60.683  1.00  0.00     0.014 C 
HETATM   35  H27 UNL     1      94.607 138.859  62.731  1.00  0.00     0.165 HD
HETATM   36  H34 UNL     1      95.396 141.704  57.089  1.00  0.00     0.163 HD
HETATM   37  H36 UNL     1      97.308 140.315  56.906  1.00  0.00     0.163 HD
HETATM   38  H44 UNL     1     101.684 140.327  61.086  1.00  0.00     0.163 HD
ENDROOT
BRANCH   1  39
HETATM   39  N2  UNL     1     100.602 138.438  63.951  1.00  0.00    -0.344 N 
HETATM   40  C21 UNL     1     100.950 138.792  65.299  1.00  0.00     0.252 C 
HETATM   41  O3  UNL     1     101.046 140.007  65.623  1.00  0.00    -0.268 OA
HETATM   42  H21 UNL     1     100.875 137.491  63.608  1.00  0.00     0.163 HD
BRANCH  40  43
HETATM   43  C18 UNL     1     101.222 137.744  66.312  1.00  0.00     0.032 A 
HETATM   44  C17 UNL     1     101.782 136.514  65.926  1.00  0.00     0.018 A 
HETATM   45  C16 UNL     1     102.044 135.523  66.876  1.00  0.00     0.015 A 
HETATM   46  C15 UNL     1     101.760 135.740  68.235  1.00  0.00    -0.005 A 
HETATM   47  C20 UNL     1     101.212 136.976  68.623  1.00  0.00     0.015 A 
HETATM   48  C19 UNL     1     100.950 137.968  67.673  1.00  0.00     0.018 A 
BRANCH  46  49
HETATM   49  C14 UNL     1     102.038 134.674  69.229  1.00  0.00     0.097 A 
HETATM   50  C13 UNL     1     101.239 134.297  70.295  1.00  0.00     0.075 A 
HETATM   51  C12 UNL     1     101.942 133.266  70.890  1.00  0.00     0.114 A 
HETATM   52  O2  UNL     1     103.052 133.077  70.213  1.00  0.00    -0.212 OA
HETATM   53  N1  UNL     1     103.143 133.902  69.212  1.00  0.00    -0.127 NA
BRANCH  51  54
HETATM   54  C9  UNL     1     101.554 132.473  72.078  1.00  0.00     0.000 A 
HETATM   55  C8  UNL     1     101.578 133.071  73.348  1.00  0.00     0.017 A 
HETATM   56  C7  UNL     1     101.230 132.337  74.485  1.00  0.00     0.037 A 
HETATM   57  C6  UNL     1     100.841 130.998  74.377  1.00  0.00     0.068 A 
HETATM   58  C11 UNL     1     100.807 130.395  73.106  1.00  0.00     0.037 A 
HETATM   59  C10 UNL     1     101.162 131.126  71.968  1.00  0.00     0.017 A 
BRANCH  57  60
HETATM   60  O1  UNL     1     100.511 130.310  75.557  1.00  0.00    -0.351 OA
BRANCH  60  61
HETATM   61  C5  UNL     1      99.499 130.693  76.487  1.00  0.00     0.175 C 
BRANCH  61  62
HETATM   62  C4  UNL     1      98.137 130.779  75.790  1.00  0.00     0.027 C 
BRANCH  62  63
HETATM   63  C3  UNL     1      97.666 132.225  75.566  1.00  0.00     0.002 C 
BRANCH  63  64
HETATM   64  C2  UNL     1      96.893 132.424  74.246  1.00  0.00    -0.004 C 
HETATM   65  C1  UNL     1      97.812 132.772  73.077  1.00  0.00     0.005 C 
ENDBRANCH  63  64
ENDBRANCH  62  63
ENDBRANCH  61  62
ENDBRANCH  60  61
ENDBRANCH  57  60
ENDBRANCH  51  54
ENDBRANCH  46  49
ENDBRANCH  40  43
ENDBRANCH   1  39
BRANCH   3  66
HETATM   66  O23 UNL     1      96.739 138.533  64.484  1.00  0.00    -0.391 OA
HETATM   67  H71 UNL     1      97.312 138.242  65.241  1.00  0.00     0.210 HD
ENDBRANCH   3  66
BRANCH   4  68
HETATM   68  O22 UNL     1      96.317 137.258  61.668  1.00  0.00    -0.374 OA
HETATM   69  H70 UNL     1      95.824 136.835  62.420  1.00  0.00     0.212 HD
ENDBRANCH   4  68
BRANCH  30  70
HETATM   70  C43 UNL     1     101.958 137.970  58.938  1.00  0.00     0.146 C 
HETATM   71  C44 UNL     1     103.311 137.910  59.656  1.00  0.00     0.042 C 
BRANCH  70  72
HETATM   72  O10 UNL     1     101.187 136.854  59.296  1.00  0.00    -0.393 OA
HETATM   73  H49 UNL     1     101.535 136.082  58.778  1.00  0.00     0.210 HD
ENDBRANCH  70  72
ENDBRANCH  30  70
BRANCH   9  74
HETATM   74  O21 UNL     1      91.949 142.066  61.902  1.00  0.00    -0.393 OA
HETATM   75  H69 UNL     1      91.676 142.893  62.378  1.00  0.00     0.210 HD
ENDBRANCH   9  74
BRANCH  25  76
HETATM   76  O11 UNL     1      98.298 143.690  59.899  1.00  0.00    -0.394 OA
HETATM   77  H50 UNL     1      97.980 144.555  59.531  1.00  0.00     0.210 HD
ENDBRANCH  25  76
BRANCH  15  78
HETATM   78  C53 UNL     1      92.759 139.656  56.762  1.00  0.00     0.158 C 
BRANCH  78  79
HETATM   79  C54 UNL     1      91.864 138.989  57.815  1.00  0.00     0.137 C 
BRANCH  79  80
HETATM   80  C55 UNL     1      91.464 137.608  57.383  1.00  0.00     0.217 C 
HETATM   81  O19 UNL     1      90.394 137.439  56.739  1.00  0.00    -0.274 OA
HETATM   82  N9  UNL     1      92.307 136.490  57.660  1.00  0.00    -0.370 N 
HETATM   83  H63 UNL     1      93.207 136.616  58.173  1.00  0.00     0.159 HD
HETATM   84  H64 UNL     1      92.028 135.531  57.356  1.00  0.00     0.159 HD
ENDBRANCH  79  80
ENDBRANCH  78  79
BRANCH  78  85
HETATM   85  O20 UNL     1      92.746 138.885  55.586  1.00  0.00    -0.393 OA
HETATM   86  H65 UNL     1      93.036 139.481  54.847  1.00  0.00     0.210 HD
ENDBRANCH  78  85
ENDBRANCH  15  78
BRANCH  19  87
HETATM   87  C45 UNL     1      97.156 139.483  53.987  1.00  0.00     0.183 C 
BRANCH  87  88
HETATM   88  C46 UNL     1      96.556 138.167  54.570  1.00  0.00     0.182 C 
BRANCH  88  89
HETATM   89  C47 UNL     1      97.463 136.958  54.394  1.00  0.00    -0.024 A 
HETATM   90  C48 UNL     1      98.557 136.730  55.250  1.00  0.00     0.051 A 
HETATM   91  C49 UNL     1      99.420 135.636  55.043  1.00  0.00     0.124 A 
HETATM   92  C50 UNL     1      99.193 134.779  53.956  1.00  0.00     0.100 A 
HETATM   93  C51 UNL     1      98.115 135.009  53.093  1.00  0.00     0.040 A 
HETATM   94  C52 UNL     1      97.261 136.091  53.306  1.00  0.00     0.013 A 
BRANCH  91  95
HETATM   95  O13 UNL     1     100.510 135.368  55.884  1.00  0.00    -0.218 OA
BRANCH  95  96
HETATM   96  S1  UNL     1     100.492 134.243  57.173  1.00  0.00     0.245 S 
HETATM   97  O14 UNL     1     101.844 134.213  57.827  1.00  0.00    -0.579 OA
HETATM   98  O15 UNL     1     100.171 132.875  56.638  1.00  0.00    -0.579 OA
BRANCH  96  99
HETATM   99  O16 UNL     1      99.334 134.685  58.309  1.00  0.00    -0.273 OA
HETATM  100  H57 UNL     1      99.490 135.651  58.467  1.00  0.00     0.234 HD
ENDBRANCH  96  99
ENDBRANCH  95  96
ENDBRANCH  91  95
BRANCH  92 101
HETATM  101  O12 UNL     1     100.049 133.700  53.739  1.00  0.00    -0.358 OA
HETATM  102  H56 UNL     1      99.916 133.064  52.961  1.00  0.00     0.217 HD
ENDBRANCH  92 101
ENDBRANCH  88  89
BRANCH  88 103
HETATM  103  O17 UNL     1      95.277 137.904  54.046  1.00  0.00    -0.388 OA
HETATM  104  H58 UNL     1      95.384 137.632  53.098  1.00  0.00     0.210 HD
ENDBRANCH  88 103
ENDBRANCH  87  88
BRANCH  87 105
HETATM  105  O18 UNL     1      96.727 139.672  52.661  1.00  0.00    -0.390 OA
HETATM  106  H59 UNL     1      97.372 140.292  52.232  1.00  0.00     0.210 HD
ENDBRANCH  87 105
ENDBRANCH  19  87
TORSDOF 28
ENDMDL
MODEL 2
REMARK minimizedAffinity -6.42610121
REMARK minimizedRMSD -1
REMARK  28 active torsions:
REMARK  status: ('A' for Active; 'I' for Inactive)
REMARK    1  A    between atoms: C2_2  and  C3_3 
REMARK    2  A    between atoms: C3_3  and  C4_4 
REMARK    3  A    between atoms: C4_4  and  C5_5 
REMARK    4  A    between atoms: C5_5  and  O1_6 
REMARK    5  A    between atoms: O1_6  and  C6_7 
REMARK    6  A    between atoms: C9_10  and  C12_13 
REMARK    7  A    between atoms: C14_15  and  C15_18 
REMARK    8  A    between atoms: C18_21  and  C21_24 
REMARK       I    between atoms: C21_24  and  N2_26 
REMARK    9  A    between atoms: N2_26  and  C22_27 
REMARK   10  A    between atoms: C24_29  and  O23_89 
REMARK   11  A    between atoms: C25_30  and  O22_88 
REMARK   12  A    between atoms: C28_35  and  O21_87 
REMARK   13  A    between atoms: C32_41  and  C53_80 
REMARK   14  A    between atoms: C34_45  and  C45_64 
REMARK   15  A    between atoms: C38_51  and  O11_63 
REMARK   16  A    between atoms: C41_56  and  C43_60 
REMARK   17  A    between atoms: C43_60  and  O10_62 
REMARK   18  A    between atoms: C45_64  and  C46_65 
REMARK   19  A    between atoms: C45_64  and  O18_79 
REMARK   20  A    between atoms: C46_65  and  C47_66 
REMARK   21  A    between atoms: C46_65  and  O17_78 
REMARK   22  A    between atoms: C49_68  and  O13_73 
REMARK   23  A    between atoms: C50_69  and  O12_72 
REMARK   24  A    between atoms: O13_73  and  S1_74 
REMARK   25  A    between atoms: S1_74  and  O16_77 
REMARK   26  A    between atoms: C53_80  and  C54_81 
REMARK   27  A    between atoms: C53_80  and  O20_85 
REMARK   28  A    between atoms: C54_81  and  C55_82 
REMARK       I    between atoms: C55_82  and  N9_84 
ROOT
HETATM    1  C22 UNL     1     100.232 138.951  63.898  1.00  0.00     0.179 C 
HETATM    2  C23 UNL     1      98.863 139.573  64.275  1.00  0.00     0.071 C 
HETATM    3  C24 UNL     1      97.631 138.629  64.156  1.00  0.00     0.169 C 
HETATM    4  C25 UNL     1      96.791 138.910  62.881  1.00  0.00     0.249 C 
HETATM    5  N3  UNL     1      95.752 139.919  63.122  1.00  0.00    -0.331 N 
HETATM    6  C26 UNL     1      95.818 141.232  62.556  1.00  0.00     0.245 C 
HETATM    7  O4  UNL     1      96.916 141.853  62.530  1.00  0.00    -0.271 OA
HETATM    8  C27 UNL     1      94.595 141.846  61.921  1.00  0.00     0.208 C 
HETATM    9  C28 UNL     1      94.309 143.250  62.480  1.00  0.00     0.155 C 
HETATM   10  C29 UNL     1      94.632 144.238  61.337  1.00  0.00     0.031 C 
HETATM   11  C30 UNL     1      95.139 143.398  60.162  1.00  0.00     0.134 C 
HETATM   12  N4  UNL     1      94.828 142.015  60.491  1.00  0.00    -0.334 N 
HETATM   13  C31 UNL     1      94.939 140.873  59.602  1.00  0.00     0.246 C 
HETATM   14  O5  UNL     1      95.068 139.727  60.112  1.00  0.00    -0.271 OA
HETATM   15  C32 UNL     1      94.810 140.932  58.085  1.00  0.00     0.206 C 
HETATM   16  N5  UNL     1      95.715 141.900  57.456  1.00  0.00    -0.344 N 
HETATM   17  C33 UNL     1      96.140 141.711  56.099  1.00  0.00     0.243 C 
HETATM   18  O6  UNL     1      95.314 141.886  55.164  1.00  0.00    -0.271 OA
HETATM   19  C34 UNL     1      97.573 141.331  55.767  1.00  0.00     0.208 C 
HETATM   20  N6  UNL     1      98.376 141.131  56.980  1.00  0.00    -0.344 N 
HETATM   21  C35 UNL     1      99.797 141.356  57.012  1.00  0.00     0.241 C 
HETATM   22  O7  UNL     1     100.426 141.567  55.941  1.00  0.00    -0.271 OA
HETATM   23  C36 UNL     1     100.543 141.433  58.323  1.00  0.00     0.181 C 
HETATM   24  C37 UNL     1     100.473 142.846  58.899  1.00  0.00     0.068 C 
HETATM   25  C38 UNL     1      99.309 142.815  59.893  1.00  0.00     0.138 C 
HETATM   26  C39 UNL     1      99.198 141.359  60.338  1.00  0.00     0.158 C 
HETATM   27  N7  UNL     1      99.912 140.596  59.331  1.00  0.00    -0.334 N 
HETATM   28  C40 UNL     1     100.186 139.202  59.486  1.00  0.00     0.246 C 
HETATM   29  O8  UNL     1      99.319 138.359  59.134  1.00  0.00    -0.271 OA
HETATM   30  C41 UNL     1     101.464 138.767  60.163  1.00  0.00     0.205 C 
HETATM   31  N8  UNL     1     101.381 138.974  61.617  1.00  0.00    -0.344 N 
HETATM   32  C42 UNL     1     100.321 138.489  62.463  1.00  0.00     0.241 C 
HETATM   33  O9  UNL     1      99.501 137.637  62.027  1.00  0.00    -0.271 OA
HETATM   34  C56 UNL     1      95.652 145.302  61.765  1.00  0.00     0.014 C 
HETATM   35  H27 UNL     1      94.843 139.608  63.536  1.00  0.00     0.165 HD
HETATM   36  H34 UNL     1      96.348 142.472  58.052  1.00  0.00     0.163 HD
HETATM   37  H36 UNL     1      97.921 140.714  57.822  1.00  0.00     0.163 HD
HETATM   38  H44 UNL     1     102.104 139.592  62.048  1.00  0.00     0.163 HD
ENDROOT
BRANCH   1  39
HETATM   39  N2  UNL     1     100.580 137.850  64.803  1.00  0.00    -0.344 N 
HETATM   40  C21 UNL     1     101.489 138.005  65.905  1.00  0.00     0.252 C 
HETATM   41  O3  UNL     1     102.252 139.009  65.952  1.00  0.00    -0.268 OA
HETATM   42  H21 UNL     1     100.238 136.889  64.583  1.00  0.00     0.163 HD
BRANCH  40  43
HETATM   43  C18 UNL     1     101.558 136.986  66.979  1.00  0.00     0.032 A 
HETATM   44  C17 UNL     1     101.898 135.657  66.674  1.00  0.00     0.018 A 
HETATM   45  C16 UNL     1     101.969 134.692  67.683  1.00  0.00     0.015 A 
HETATM   46  C15 UNL     1     101.710 135.033  69.020  1.00  0.00    -0.005 A 
HETATM   47  C20 UNL     1     101.383 136.366  69.328  1.00  0.00     0.015 A 
HETATM   48  C19 UNL     1     101.312 137.332  68.319  1.00  0.00     0.018 A 
BRANCH  46  49
HETATM   49  C14 UNL     1     101.783 133.994  70.078  1.00  0.00     0.097 A 
HETATM   50  C13 UNL     1     101.042 133.937  71.246  1.00  0.00     0.075 A 
HETATM   51  C12 UNL     1     101.481 132.780  71.862  1.00  0.00     0.114 A 
HETATM   52  O2  UNL     1     102.399 132.229  71.102  1.00  0.00    -0.212 OA
HETATM   53  N1  UNL     1     102.606 132.928  70.025  1.00  0.00    -0.127 NA
BRANCH  51  54
HETATM   54  C9  UNL     1     101.024 132.212  73.150  1.00  0.00     0.000 A 
HETATM   55  C8  UNL     1     100.172 131.095  73.152  1.00  0.00     0.017 A 
HETATM   56  C7  UNL     1      99.717 130.553  74.357  1.00  0.00     0.037 A 
HETATM   57  C6  UNL     1     100.109 131.103  75.580  1.00  0.00     0.068 A 
HETATM   58  C11 UNL     1     100.970 132.217  75.585  1.00  0.00     0.037 A 
HETATM   59  C10 UNL     1     101.421 132.766  74.381  1.00  0.00     0.017 A 
BRANCH  57  60
HETATM   60  O1  UNL     1      99.612 130.519  76.757  1.00  0.00    -0.351 OA
BRANCH  60  61
HETATM   61  C5  UNL     1      98.750 131.154  77.701  1.00  0.00     0.175 C 
BRANCH  61  62
HETATM   62  C4  UNL     1      97.384 131.440  77.069  1.00  0.00     0.027 C 
BRANCH  62  63
HETATM   63  C3  UNL     1      96.997 132.928  77.120  1.00  0.00     0.002 C 
BRANCH  63  64
HETATM   64  C2  UNL     1      97.620 133.765  75.984  1.00  0.00    -0.004 C 
HETATM   65  C1  UNL     1      97.199 133.276  74.599  1.00  0.00     0.005 C 
ENDBRANCH  63  64
ENDBRANCH  62  63
ENDBRANCH  61  62
ENDBRANCH  60  61
ENDBRANCH  57  60
ENDBRANCH  51  54
ENDBRANCH  46  49
ENDBRANCH  40  43
ENDBRANCH   1  39
BRANCH   3  66
HETATM   66  O23 UNL     1      96.816 138.750  65.296  1.00  0.00    -0.391 OA
HETATM   67  H71 UNL     1      97.297 138.309  66.043  1.00  0.00     0.210 HD
ENDBRANCH   3  66
BRANCH   4  68
HETATM   68  O22 UNL     1      96.193 137.726  62.415  1.00  0.00    -0.374 OA
HETATM   69  H70 UNL     1      95.604 137.385  63.139  1.00  0.00     0.212 HD
ENDBRANCH   4  68
BRANCH  30  70
HETATM   70  C43 UNL     1     101.914 137.332  59.789  1.00  0.00     0.146 C 
HETATM   71  C44 UNL     1     103.198 137.354  58.952  1.00  0.00     0.042 C 
BRANCH  70  72
HETATM   72  O10 UNL     1     102.115 136.547  60.935  1.00  0.00    -0.393 OA
HETATM   73  H49 UNL     1     102.059 135.599  60.650  1.00  0.00     0.210 HD
ENDBRANCH  70  72
ENDBRANCH  30  70
BRANCH   9  74
HETATM   74  O21 UNL     1      92.954 143.346  62.836  1.00  0.00    -0.393 OA
HETATM   75  H69 UNL     1      92.855 144.190  63.350  1.00  0.00     0.210 HD
ENDBRANCH   9  74
BRANCH  25  76
HETATM   76  O11 UNL     1      99.546 143.656  60.991  1.00  0.00    -0.394 OA
HETATM   77  H50 UNL     1      99.430 144.585  60.662  1.00  0.00     0.210 HD
ENDBRANCH  25  76
BRANCH  15  78
HETATM   78  C53 UNL     1      93.341 141.057  57.593  1.00  0.00     0.158 C 
BRANCH  78  79
HETATM   79  C54 UNL     1      92.777 142.482  57.673  1.00  0.00     0.137 C 
BRANCH  79  80
HETATM   80  C55 UNL     1      91.521 142.517  58.494  1.00  0.00     0.217 C 
HETATM   81  O19 UNL     1      90.408 142.299  57.945  1.00  0.00    -0.274 OA
HETATM   82  N9  UNL     1      91.581 142.755  59.900  1.00  0.00    -0.370 N 
HETATM   83  H63 UNL     1      92.497 142.915  60.374  1.00  0.00     0.159 HD
HETATM   84  H64 UNL     1      90.707 142.776  60.470  1.00  0.00     0.159 HD
ENDBRANCH  79  80
ENDBRANCH  78  79
BRANCH  78  85
HETATM   85  O20 UNL     1      92.520 140.191  58.336  1.00  0.00    -0.393 OA
HETATM   86  H65 UNL     1      92.696 139.271  58.005  1.00  0.00     0.210 HD
ENDBRANCH  78  85
ENDBRANCH  15  78
BRANCH  19  87
HETATM   87  C45 UNL     1      97.659 140.069  54.863  1.00  0.00     0.183 C 
BRANCH  87  88
HETATM   88  C46 UNL     1      96.495 139.060  55.107  1.00  0.00     0.182 C 
BRANCH  88  89
HETATM   89  C47 UNL     1      96.807 138.024  56.178  1.00  0.00    -0.024 A 
HETATM   90  C48 UNL     1      98.028 137.323  56.188  1.00  0.00     0.051 A 
HETATM   91  C49 UNL     1      98.282 136.330  57.153  1.00  0.00     0.124 A 
HETATM   92  C50 UNL     1      97.295 136.025  58.101  1.00  0.00     0.100 A 
HETATM   93  C51 UNL     1      96.073 136.709  58.088  1.00  0.00     0.040 A 
HETATM   94  C52 UNL     1      95.829 137.695  57.132  1.00  0.00     0.013 A 
BRANCH  91  95
HETATM   95  O13 UNL     1      99.492 135.623  57.204  1.00  0.00    -0.218 OA
BRANCH  95  96
HETATM   96  S1  UNL     1      99.740 134.067  56.534  1.00  0.00     0.245 S 
HETATM   97  O14 UNL     1     101.117 133.584  56.894  1.00  0.00    -0.579 OA
HETATM   98  O15 UNL     1      99.619 134.144  55.037  1.00  0.00    -0.579 OA
BRANCH  96  99
HETATM   99  O16 UNL     1      98.597 132.991  57.135  1.00  0.00    -0.273 OA
HETATM  100  H57 UNL     1      98.601 133.139  58.115  1.00  0.00     0.234 HD
ENDBRANCH  96  99
ENDBRANCH  95  96
ENDBRANCH  91  95
BRANCH  92 101
HETATM  101  O12 UNL     1      97.536 135.035  59.054  1.00  0.00    -0.358 OA
HETATM  102  H56 UNL     1      96.841 134.789  59.750  1.00  0.00     0.217 HD
ENDBRANCH  92 101
ENDBRANCH  88  89
BRANCH  88 103
HETATM  103  O17 UNL     1      96.098 138.429  53.914  1.00  0.00    -0.388 OA
HETATM  104  H58 UNL     1      96.815 137.796  53.648  1.00  0.00     0.210 HD
ENDBRANCH  88 103
ENDBRANCH  87  88
BRANCH  87 105
HETATM  105  O18 UNL     1      97.697 140.456  53.512  1.00  0.00    -0.390 OA
HETATM  106  H59 UNL     1      98.611 140.800  53.334  1.00  0.00     0.210 HD
ENDBRANCH  87 105
ENDBRANCH  19  87
TORSDOF 28
ENDMDL
MODEL 3
REMARK minimizedAffinity -5.98819828
REMARK minimizedRMSD -1
REMARK  28 active torsions:
REMARK  status: ('A' for Active; 'I' for Inactive)
REMARK    1  A    between atoms: C2_2  and  C3_3 
REMARK    2  A    between atoms: C3_3  and  C4_4 
REMARK    3  A    between atoms: C4_4  and  C5_5 
REMARK    4  A    between atoms: C5_5  and  O1_6 
REMARK    5  A    between atoms: O1_6  and  C6_7 
REMARK    6  A    between atoms: C9_10  and  C12_13 
REMARK    7  A    between atoms: C14_15  and  C15_18 
REMARK    8  A    between atoms: C18_21  and  C21_24 
REMARK       I    between atoms: C21_24  and  N2_26 
REMARK    9  A    between atoms: N2_26  and  C22_27 
REMARK   10  A    between atoms: C24_29  and  O23_89 
REMARK   11  A    between atoms: C25_30  and  O22_88 
REMARK   12  A    between atoms: C28_35  and  O21_87 
REMARK   13  A    between atoms: C32_41  and  C53_80 
REMARK   14  A    between atoms: C34_45  and  C45_64 
REMARK   15  A    between atoms: C38_51  and  O11_63 
REMARK   16  A    between atoms: C41_56  and  C43_60 
REMARK   17  A    between atoms: C43_60  and  O10_62 
REMARK   18  A    between atoms: C45_64  and  C46_65 
REMARK   19  A    between atoms: C45_64  and  O18_79 
REMARK   20  A    between atoms: C46_65  and  C47_66 
REMARK   21  A    between atoms: C46_65  and  O17_78 
REMARK   22  A    between atoms: C49_68  and  O13_73 
REMARK   23  A    between atoms: C50_69  and  O12_72 
REMARK   24  A    between atoms: O13_73  and  S1_74 
REMARK   25  A    between atoms: S1_74  and  O16_77 
REMARK   26  A    between atoms: C53_80  and  C54_81 
REMARK   27  A    between atoms: C53_80  and  O20_85 
REMARK   28  A    between atoms: C54_81  and  C55_82 
REMARK       I    between atoms: C55_82  and  N9_84 
ROOT
HETATM    1  C22 UNL     1      95.759 140.859  64.732  1.00  0.00     0.179 C 
HETATM    2  C23 UNL     1      94.312 141.362  64.497  1.00  0.00     0.071 C 
HETATM    3  C24 UNL     1      93.253 140.265  64.183  1.00  0.00     0.169 C 
HETATM    4  C25 UNL     1      92.895 140.204  62.673  1.00  0.00     0.249 C 
HETATM    5  N3  UNL     1      91.782 141.101  62.339  1.00  0.00    -0.331 N 
HETATM    6  C26 UNL     1      91.968 142.288  61.560  1.00  0.00     0.245 C 
HETATM    7  O4  UNL     1      92.969 143.026  61.765  1.00  0.00    -0.271 OA
HETATM    8  C27 UNL     1      91.009 142.618  60.442  1.00  0.00     0.208 C 
HETATM    9  C28 UNL     1      90.468 144.053  60.563  1.00  0.00     0.155 C 
HETATM   10  C29 UNL     1      91.113 144.851  59.408  1.00  0.00     0.031 C 
HETATM   11  C30 UNL     1      92.043 143.882  58.673  1.00  0.00     0.134 C 
HETATM   12  N4  UNL     1      91.715 142.553  59.167  1.00  0.00    -0.334 N 
HETATM   13  C31 UNL     1      92.192 141.293  58.629  1.00  0.00     0.246 C 
HETATM   14  O5  UNL     1      92.199 140.283  59.385  1.00  0.00    -0.271 OA
HETATM   15  C32 UNL     1      92.595 141.059  57.179  1.00  0.00     0.206 C 
HETATM   16  N5  UNL     1      93.607 142.003  56.691  1.00  0.00    -0.344 N 
HETATM   17  C33 UNL     1      94.487 141.626  55.624  1.00  0.00     0.243 C 
HETATM   18  O6  UNL     1      94.028 141.524  54.454  1.00  0.00    -0.271 OA
HETATM   19  C34 UNL     1      95.964 141.376  55.870  1.00  0.00     0.208 C 
HETATM   20  N6  UNL     1      96.305 141.500  57.293  1.00  0.00    -0.344 N 
HETATM   21  C35 UNL     1      97.611 141.904  57.742  1.00  0.00     0.241 C 
HETATM   22  O7  UNL     1      98.560 141.995  56.919  1.00  0.00    -0.271 OA
HETATM   23  C36 UNL     1      97.850 142.309  59.177  1.00  0.00     0.181 C 
HETATM   24  C37 UNL     1      97.505 143.784  59.383  1.00  0.00     0.068 C 
HETATM   25  C38 UNL     1      96.072 143.787  59.922  1.00  0.00     0.138 C 
HETATM   26  C39 UNL     1      95.895 142.434  60.604  1.00  0.00     0.158 C 
HETATM   27  N7  UNL     1      96.955 141.597  60.075  1.00  0.00    -0.334 N 
HETATM   28  C40 UNL     1      97.236 140.299  60.605  1.00  0.00     0.246 C 
HETATM   29  O8  UNL     1      96.594 139.304  60.175  1.00  0.00    -0.271 OA
HETATM   30  C41 UNL     1      98.222 140.158  61.741  1.00  0.00     0.205 C 
HETATM   31  N8  UNL     1      97.626 140.612  63.007  1.00  0.00    -0.344 N 
HETATM   32  C42 UNL     1      96.367 140.160  63.540  1.00  0.00     0.241 C 
HETATM   33  O9  UNL     1      95.799 139.147  63.051  1.00  0.00    -0.271 OA
HETATM   34  C56 UNL     1      91.860 146.093  59.911  1.00  0.00     0.014 C 
HETATM   35  H27 UNL     1      90.805 140.758  62.487  1.00  0.00     0.165 HD
HETATM   36  H34 UNL     1      93.960 142.748  57.326  1.00  0.00     0.163 HD
HETATM   37  H36 UNL     1      95.610 141.189  58.007  1.00  0.00     0.163 HD
HETATM   38  H44 UNL     1      98.119 141.384  63.510  1.00  0.00     0.163 HD
ENDROOT
BRANCH   1  39
HETATM   39  N2  UNL     1      95.832 139.993  65.914  1.00  0.00    -0.344 N 
HETATM   40  C21 UNL     1      95.723 140.494  67.256  1.00  0.00     0.252 C 
HETATM   41  O3  UNL     1      95.865 141.728  67.478  1.00  0.00    -0.268 OA
HETATM   42  H21 UNL     1      96.075 138.986  65.787  1.00  0.00     0.163 HD
BRANCH  40  43
HETATM   43  C18 UNL     1      95.467 139.574  68.390  1.00  0.00     0.032 A 
HETATM   44  C17 UNL     1      94.179 139.473  68.944  1.00  0.00     0.018 A 
HETATM   45  C16 UNL     1      93.930 138.606  70.011  1.00  0.00     0.015 A 
HETATM   46  C15 UNL     1      94.960 137.814  70.546  1.00  0.00    -0.005 A 
HETATM   47  C20 UNL     1      96.245 137.905  69.983  1.00  0.00     0.015 A 
HETATM   48  C19 UNL     1      96.495 138.772  68.915  1.00  0.00     0.018 A 
BRANCH  46  49
HETATM   49  C14 UNL     1      94.679 136.904  71.684  1.00  0.00     0.097 A 
HETATM   50  C13 UNL     1      94.920 135.542  71.744  1.00  0.00     0.075 A 
HETATM   51  C12 UNL     1      94.495 135.184  73.010  1.00  0.00     0.114 A 
HETATM   52  O2  UNL     1      94.047 136.259  73.616  1.00  0.00    -0.212 OA
HETATM   53  N1  UNL     1      94.142 137.308  72.852  1.00  0.00    -0.127 NA
BRANCH  51  54
HETATM   54  C9  UNL     1      94.524 133.839  73.627  1.00  0.00     0.000 A 
HETATM   55  C8  UNL     1      94.962 132.739  72.873  1.00  0.00     0.017 A 
HETATM   56  C7  UNL     1      94.984 131.458  73.432  1.00  0.00     0.037 A 
HETATM   57  C6  UNL     1      94.580 131.251  74.754  1.00  0.00     0.068 A 
HETATM   58  C11 UNL     1      94.148 132.351  75.519  1.00  0.00     0.037 A 
HETATM   59  C10 UNL     1      94.119 133.632  74.959  1.00  0.00     0.017 A 
BRANCH  57  60
HETATM   60  O1  UNL     1      94.616 129.939  75.257  1.00  0.00    -0.351 OA
BRANCH  60  61
HETATM   61  C5  UNL     1      93.665 128.914  74.974  1.00  0.00     0.175 C 
BRANCH  61  62
HETATM   62  C4  UNL     1      92.255 129.506  74.878  1.00  0.00     0.027 C 
BRANCH  62  63
HETATM   63  C3  UNL     1      91.568 129.207  73.535  1.00  0.00     0.002 C 
BRANCH  63  64
HETATM   64  C2  UNL     1      91.668 130.365  72.520  1.00  0.00    -0.004 C 
HETATM   65  C1  UNL     1      91.182 131.693  73.099  1.00  0.00     0.005 C 
ENDBRANCH  63  64
ENDBRANCH  62  63
ENDBRANCH  61  62
ENDBRANCH  60  61
ENDBRANCH  57  60
ENDBRANCH  51  54
ENDBRANCH  46  49
ENDBRANCH  40  43
ENDBRANCH   1  39
BRANCH   3  66
HETATM   66  O23 UNL     1      92.088 140.488  64.937  1.00  0.00    -0.391 OA
HETATM   67  H71 UNL     1      92.302 140.252  65.878  1.00  0.00     0.210 HD
ENDBRANCH   3  66
BRANCH   4  68
HETATM   68  O22 UNL     1      92.563 138.889  62.301  1.00  0.00    -0.374 OA
HETATM   69  H70 UNL     1      91.779 138.614  62.845  1.00  0.00     0.212 HD
ENDBRANCH   4  68
BRANCH  30  70
HETATM   70  C43 UNL     1      98.853 138.747  61.850  1.00  0.00     0.146 C 
HETATM   71  C44 UNL     1      99.688 138.612  63.128  1.00  0.00     0.042 C 
BRANCH  70  72
HETATM   72  O10 UNL     1      97.869 137.747  61.825  1.00  0.00    -0.393 OA
HETATM   73  H49 UNL     1      98.319 136.904  61.557  1.00  0.00     0.210 HD
ENDBRANCH  70  72
ENDBRANCH  30  70
BRANCH   9  74
HETATM   74  O21 UNL     1      89.071 144.041  60.425  1.00  0.00    -0.393 OA
HETATM   75  H69 UNL     1      88.752 144.945  60.685  1.00  0.00     0.210 HD
ENDBRANCH   9  74
BRANCH  25  76
HETATM   76  O11 UNL     1      95.865 144.836  60.830  1.00  0.00    -0.394 OA
HETATM   77  H50 UNL     1      95.819 145.668  60.291  1.00  0.00     0.210 HD
ENDBRANCH  25  76
BRANCH  15  78
HETATM   78  C53 UNL     1      91.384 140.908  56.216  1.00  0.00     0.158 C 
BRANCH  78  79
HETATM   79  C54 UNL     1      91.268 139.519  55.574  1.00  0.00     0.137 C 
BRANCH  79  80
HETATM   80  C55 UNL     1      91.297 139.616  54.076  1.00  0.00     0.217 C 
HETATM   81  O19 UNL     1      90.249 139.927  53.449  1.00  0.00    -0.274 OA
HETATM   82  N9  UNL     1      92.513 139.399  53.360  1.00  0.00    -0.370 N 
HETATM   83  H63 UNL     1      93.394 139.163  53.867  1.00  0.00     0.159 HD
HETATM   84  H64 UNL     1      92.531 139.470  52.319  1.00  0.00     0.159 HD
ENDBRANCH  79  80
ENDBRANCH  78  79
BRANCH  78  85
HETATM   85  O20 UNL     1      91.462 141.882  55.205  1.00  0.00    -0.393 OA
HETATM   86  H65 UNL     1      91.201 142.748  55.617  1.00  0.00     0.210 HD
ENDBRANCH  78  85
ENDBRANCH  15  78
BRANCH  19  87
HETATM   87  C45 UNL     1      96.429 139.992  55.336  1.00  0.00     0.183 C 
BRANCH  87  88
HETATM   88  C46 UNL     1      95.404 138.850  55.617  1.00  0.00     0.182 C 
BRANCH  88  89
HETATM   89  C47 UNL     1      95.788 137.970  56.798  1.00  0.00    -0.024 A 
HETATM   90  C48 UNL     1      97.135 137.741  57.135  1.00  0.00     0.051 A 
HETATM   91  C49 UNL     1      97.477 136.882  58.198  1.00  0.00     0.124 A 
HETATM   92  C50 UNL     1      96.459 136.234  58.912  1.00  0.00     0.100 A 
HETATM   93  C51 UNL     1      95.117 136.448  58.572  1.00  0.00     0.040 A 
HETATM   94  C52 UNL     1      94.785 137.302  57.522  1.00  0.00     0.013 A 
BRANCH  91  95
HETATM   95  O13 UNL     1      98.807 136.642  58.574  1.00  0.00    -0.218 OA
BRANCH  95  96
HETATM   96  S1  UNL     1      99.721 135.274  58.102  1.00  0.00     0.245 S 
HETATM   97  O14 UNL     1     100.897 135.119  59.023  1.00  0.00    -0.579 OA
HETATM   98  O15 UNL     1     100.216 135.467  56.695  1.00  0.00    -0.579 OA
BRANCH  96  99
HETATM   99  O16 UNL     1      98.769 133.891  58.176  1.00  0.00    -0.273 OA
HETATM  100  H57 UNL     1      98.325 133.936  59.061  1.00  0.00     0.234 HD
ENDBRANCH  96  99
ENDBRANCH  95  96
ENDBRANCH  91  95
BRANCH  92 101
HETATM  101  O12 UNL     1      96.790 135.374  59.959  1.00  0.00    -0.358 OA
HETATM  102  H56 UNL     1      96.078 134.888  60.492  1.00  0.00     0.217 HD
ENDBRANCH  92 101
ENDBRANCH  88  89
BRANCH  88 103
HETATM  103  O17 UNL     1      95.177 138.064  54.472  1.00  0.00    -0.388 OA
HETATM  104  H58 UNL     1      95.991 137.521  54.306  1.00  0.00     0.210 HD
ENDBRANCH  88 103
ENDBRANCH  87  88
BRANCH  87 105
HETATM  105  O18 UNL     1      96.698 140.082  53.959  1.00  0.00    -0.390 OA
HETATM  106  H59 UNL     1      97.567 140.552  53.862  1.00  0.00     0.210 HD
ENDBRANCH  87 105
ENDBRANCH  19  87
TORSDOF 28
ENDMDL
