REMARK  23 active torsions:
REMARK  status: ('A' for Active; 'I' for Inactive)
REMARK    1  A    between atoms: C2_2  and  C3_3 
REMARK    2  A    between atoms: C3_3  and  C4_4 
REMARK    3  A    between atoms: C4_4  and  C5_5 
REMARK    4  A    between atoms: C5_5  and  O1_6 
REMARK    5  A    between atoms: O1_6  and  C6_7 
REMARK    6  A    between atoms: C9_10  and  C12_13 
REMARK    7  A    between atoms: C15_16  and  C18_19 
REMARK    8  A    between atoms: C21_22  and  C24_25 
REMARK       I    between atoms: C24_25  and  N1_27 
REMARK    9  A    between atoms: N1_27  and  C25_28 
REMARK   10  A    between atoms: C27_30  and  O17_82 
REMARK   11  A    between atoms: C28_31  and  O16_81 
REMARK   12  A    between atoms: C31_36  and  O15_80 
REMARK   13  A    between atoms: C35_42  and  C56_76 
REMARK   14  A    between atoms: C37_46  and  C48_65 
REMARK   15  A    between atoms: C41_52  and  O10_64 
REMARK   16  A    between atoms: C44_57  and  C46_61 
REMARK   17  A    between atoms: C46_61  and  O9_63 
REMARK   18  A    between atoms: C48_65  and  C49_66 
REMARK   19  A    between atoms: C48_65  and  O13_75 
REMARK   20  A    between atoms: C49_66  and  C50_67 
REMARK   21  A    between atoms: C49_66  and  O12_74 
REMARK   22  A    between atoms: C53_70  and  O11_73 
REMARK   23  A    between atoms: C56_76  and  O14_78 
ROOT
HETATM    1  C25 UNL     1       0.311   0.666  -0.252  1.00  0.00     0.179 C 
HETATM    2  C26 UNL     1      -0.199   1.630  -1.346  1.00  0.00     0.071 C 
HETATM    3  C27 UNL     1      -1.548   2.324  -1.005  1.00  0.00     0.169 C 
HETATM    4  C28 UNL     1      -2.791   1.563  -1.548  1.00  0.00     0.249 C 
HETATM    5  N2  UNL     1      -4.028   2.300  -1.251  1.00  0.00    -0.331 N 
HETATM    6  C29 UNL     1      -5.287   1.979  -1.868  1.00  0.00     0.245 C 
HETATM    7  O3  UNL     1      -5.406   0.915  -2.533  1.00  0.00    -0.271 OA
HETATM    8  C30 UNL     1      -6.455   2.942  -1.741  1.00  0.00     0.208 C 
HETATM    9  C31 UNL     1      -6.063   4.391  -2.143  1.00  0.00     0.155 C 
HETATM   10  C32 UNL     1      -7.253   4.933  -2.956  1.00  0.00     0.031 C 
HETATM   11  C33 UNL     1      -7.928   3.685  -3.523  1.00  0.00     0.134 C 
HETATM   12  N3  UNL     1      -7.576   2.599  -2.621  1.00  0.00    -0.334 N 
HETATM   13  C34 UNL     1      -8.284   1.344  -2.675  1.00  0.00     0.246 C 
HETATM   14  O4  UNL     1      -8.541   0.852  -3.808  1.00  0.00    -0.271 OA
HETATM   15  C35 UNL     1      -8.866   0.657  -1.452  1.00  0.00     0.205 C 
HETATM   16  N4  UNL     1      -7.880   0.531  -0.366  1.00  0.00    -0.344 N 
HETATM   17  C36 UNL     1      -8.253   0.353   1.008  1.00  0.00     0.243 C 
HETATM   18  O5  UNL     1      -8.411   1.371   1.732  1.00  0.00    -0.271 OA
HETATM   19  C37 UNL     1      -8.430  -1.018   1.633  1.00  0.00     0.208 C 
HETATM   20  N5  UNL     1      -7.331  -1.298   2.565  1.00  0.00    -0.344 N 
HETATM   21  C38 UNL     1      -5.942  -1.161   2.233  1.00  0.00     0.241 C 
HETATM   22  O6  UNL     1      -5.547  -1.354   1.051  1.00  0.00    -0.271 OA
HETATM   23  C39 UNL     1      -4.969  -0.694   3.287  1.00  0.00     0.181 C 
HETATM   24  C40 UNL     1      -5.280   0.743   3.712  1.00  0.00     0.068 C 
HETATM   25  C41 UNL     1      -4.326   1.628   2.902  1.00  0.00     0.138 C 
HETATM   26  C42 UNL     1      -3.148   0.719   2.534  1.00  0.00     0.158 C 
HETATM   27  N6  UNL     1      -3.617  -0.639   2.746  1.00  0.00    -0.334 N 
HETATM   28  C43 UNL     1      -2.776  -1.800   2.647  1.00  0.00     0.246 C 
HETATM   29  O7  UNL     1      -2.783  -2.638   3.590  1.00  0.00    -0.271 OA
HETATM   30  C44 UNL     1      -1.961  -2.056   1.394  1.00  0.00     0.205 C 
HETATM   31  N7  UNL     1      -0.970  -0.993   1.195  1.00  0.00    -0.344 N 
HETATM   32  C45 UNL     1      -0.563  -0.550  -0.108  1.00  0.00     0.241 C 
HETATM   33  O8  UNL     1      -0.906  -1.198  -1.134  1.00  0.00    -0.271 OA
HETATM   34  C58 UNL     1      -8.208   5.744  -2.068  1.00  0.00     0.014 C 
HETATM   35  H30 UNL     1      -3.985   3.141  -0.634  1.00  0.00     0.165 HD
HETATM   36  H37 UNL     1      -6.955   0.136  -0.633  1.00  0.00     0.163 HD
HETATM   37  H39 UNL     1      -7.575  -1.406   3.574  1.00  0.00     0.163 HD
HETATM   38  H47 UNL     1      -0.538  -0.547   2.038  1.00  0.00     0.163 HD
ENDROOT
BRANCH   1  39
HETATM   39  N1  UNL     1       1.678   0.244  -0.564  1.00  0.00    -0.344 N 
HETATM   40  C24 UNL     1       2.612  -0.143   0.453  1.00  0.00     0.252 C 
HETATM   41  O2  UNL     1       2.191  -0.425   1.610  1.00  0.00    -0.268 OA
HETATM   42  H24 UNL     1       1.945   0.121  -1.567  1.00  0.00     0.163 HD
BRANCH  40  43
HETATM   43  C21 UNL     1       4.068  -0.202   0.177  1.00  0.00     0.032 A 
HETATM   44  C20 UNL     1       4.917  -0.930   1.027  1.00  0.00     0.018 A 
HETATM   45  C19 UNL     1       6.296  -0.949   0.809  1.00  0.00     0.013 A 
HETATM   46  C18 UNL     1       6.861  -0.237  -0.263  1.00  0.00    -0.026 A 
HETATM   47  C23 UNL     1       6.012   0.481  -1.122  1.00  0.00     0.013 A 
HETATM   48  C22 UNL     1       4.631   0.500  -0.905  1.00  0.00     0.018 A 
BRANCH  46  49
HETATM   49  C15 UNL     1       8.333  -0.220  -0.465  1.00  0.00    -0.026 A 
HETATM   50  C14 UNL     1       9.203  -0.128   0.636  1.00  0.00     0.013 A 
HETATM   51  C13 UNL     1      10.587  -0.100   0.447  1.00  0.00     0.013 A 
HETATM   52  C12 UNL     1      11.134  -0.163  -0.846  1.00  0.00    -0.026 A 
HETATM   53  C17 UNL     1      10.264  -0.258  -1.946  1.00  0.00     0.013 A 
HETATM   54  C16 UNL     1       8.879  -0.285  -1.758  1.00  0.00     0.013 A 
BRANCH  52  55
HETATM   55  C9  UNL     1      12.606  -0.126  -1.046  1.00  0.00    -0.026 A 
HETATM   56  C8  UNL     1      13.219  -0.955  -2.002  1.00  0.00     0.015 A 
HETATM   57  C7  UNL     1      14.604  -0.920  -2.188  1.00  0.00     0.037 A 
HETATM   58  C6  UNL     1      15.403  -0.051  -1.421  1.00  0.00     0.068 A 
HETATM   59  C11 UNL     1      14.794   0.770  -0.467  1.00  0.00     0.037 A 
HETATM   60  C10 UNL     1      13.409   0.736  -0.279  1.00  0.00     0.015 A 
BRANCH  58  61
HETATM   61  O1  UNL     1      16.795   0.024  -1.574  1.00  0.00    -0.351 OA
BRANCH  61  62
HETATM   62  C5  UNL     1      17.549  -0.765  -2.493  1.00  0.00     0.175 C 
BRANCH  62  63
HETATM   63  C4  UNL     1      19.034  -0.400  -2.416  1.00  0.00     0.027 C 
BRANCH  63  64
HETATM   64  C3  UNL     1      19.623  -0.490  -0.998  1.00  0.00     0.002 C 
BRANCH  64  65
HETATM   65  C2  UNL     1      19.664  -1.928  -0.460  1.00  0.00    -0.004 C 
HETATM   66  C1  UNL     1      20.377  -1.985   0.888  1.00  0.00     0.005 C 
ENDBRANCH  64  65
ENDBRANCH  63  64
ENDBRANCH  62  63
ENDBRANCH  61  62
ENDBRANCH  58  61
ENDBRANCH  52  55
ENDBRANCH  46  49
ENDBRANCH  40  43
ENDBRANCH   1  39
BRANCH   3  67
HETATM   67  O17 UNL     1      -1.541   3.654  -1.466  1.00  0.00    -0.391 OA
HETATM   68  H73 UNL     1      -1.353   3.639  -2.441  1.00  0.00     0.210 HD
ENDBRANCH   3  67
BRANCH   4  69
HETATM   69  O16 UNL     1      -2.673   1.336  -2.933  1.00  0.00    -0.374 OA
HETATM   70  H72 UNL     1      -2.825   2.204  -3.391  1.00  0.00     0.212 HD
ENDBRANCH   4  69
BRANCH  30  71
HETATM   71  C46 UNL     1      -1.293  -3.458   1.365  1.00  0.00     0.146 C 
HETATM   72  C47 UNL     1      -0.040  -3.539   2.250  1.00  0.00     0.042 C 
BRANCH  71  73
HETATM   73  O9  UNL     1      -0.962  -3.789   0.042  1.00  0.00    -0.393 OA
HETATM   74  H52 UNL     1      -0.786  -4.766   0.020  1.00  0.00     0.210 HD
ENDBRANCH  71  73
ENDBRANCH  30  71
BRANCH   9  75
HETATM   75  O15 UNL     1      -4.890   4.447  -2.925  1.00  0.00    -0.393 OA
HETATM   76  H71 UNL     1      -5.043   3.915  -3.751  1.00  0.00     0.210 HD
ENDBRANCH   9  75
BRANCH  25  77
HETATM   77  O10 UNL     1      -4.963   2.135   1.755  1.00  0.00    -0.394 OA
HETATM   78  H53 UNL     1      -5.234   1.364   1.189  1.00  0.00     0.210 HD
ENDBRANCH  25  77
BRANCH  15  79
HETATM   79  C56 UNL     1     -10.225   1.276  -1.002  1.00  0.00     0.146 C 
HETATM   80  C57 UNL     1     -10.159   2.772  -0.661  1.00  0.00     0.042 C 
BRANCH  79  81
HETATM   81  O14 UNL     1     -11.219   1.034  -1.967  1.00  0.00    -0.393 OA
HETATM   82  H67 UNL     1     -11.011   1.581  -2.770  1.00  0.00     0.210 HD
ENDBRANCH  79  81
ENDBRANCH  15  79
BRANCH  19  83
HETATM   83  C48 UNL     1      -8.697  -2.168   0.609  1.00  0.00     0.183 C 
BRANCH  83  84
HETATM   84  C49 UNL     1      -9.114  -3.534   1.232  1.00  0.00     0.182 C 
BRANCH  84  85
HETATM   85  C50 UNL     1     -10.223  -3.402   2.259  1.00  0.00    -0.027 A 
HETATM   86  C51 UNL     1     -11.539  -3.184   1.813  1.00  0.00     0.012 A 
HETATM   87  C52 UNL     1     -12.580  -2.989   2.725  1.00  0.00     0.037 A 
HETATM   88  C53 UNL     1     -12.320  -3.016   4.101  1.00  0.00     0.065 A 
HETATM   89  C54 UNL     1     -11.015  -3.229   4.557  1.00  0.00     0.037 A 
HETATM   90  C55 UNL     1      -9.969  -3.416   3.645  1.00  0.00     0.012 A 
BRANCH  88  91
HETATM   91  O11 UNL     1     -13.351  -2.836   5.021  1.00  0.00    -0.361 OA
HETATM   92  H60 UNL     1     -14.309  -2.696   4.719  1.00  0.00     0.217 HD
ENDBRANCH  88  91
ENDBRANCH  84  85
BRANCH  84  93
HETATM   93  O12 UNL     1      -8.027  -4.289   1.712  1.00  0.00    -0.388 OA
HETATM   94  H61 UNL     1      -7.458  -3.711   2.276  1.00  0.00     0.210 HD
ENDBRANCH  84  93
ENDBRANCH  83  84
BRANCH  83  95
HETATM   95  O13 UNL     1      -7.600  -2.357  -0.242  1.00  0.00    -0.390 OA
HETATM   96  H62 UNL     1      -7.949  -2.718  -1.100  1.00  0.00     0.210 HD
ENDBRANCH  83  95
ENDBRANCH  19  83
TORSDOF 23
