REMARK WARNING: 32 MAX_TORS EXCEEDED!!!
REMARK  33 active torsions:
REMARK  status: ('A' for Active; 'I' for Inactive)
REMARK    1  A    between atoms: C2_2  and  C3_3 
REMARK    2  A    between atoms: C3_3  and  C5_5 
REMARK    3  A    between atoms: C5_5  and  C6_6 
REMARK    4  A    between atoms: C6_6  and  C8_8 
REMARK    5  A    between atoms: C8_8  and  C9_9 
REMARK    6  A    between atoms: C9_9  and  C10_10 
REMARK    7  A    between atoms: C10_10  and  C11_11 
REMARK    8  A    between atoms: C11_11  and  C12_12 
REMARK    9  A    between atoms: C12_12  and  C13_13 
REMARK   10  A    between atoms: C13_13  and  C14_14 
REMARK   11  A    between atoms: C14_14  and  C15_15 
REMARK   12  A    between atoms: C15_15  and  C16_16 
REMARK       I    between atoms: C16_16  and  N1_18 
REMARK   13  A    between atoms: N1_18  and  C17_19 
REMARK   14  A    between atoms: C19_21  and  O15_77 
REMARK   15  A    between atoms: C20_22  and  N9_73 
REMARK   16  A    between atoms: C23_27  and  O14_72 
REMARK   17  A    between atoms: C27_33  and  C48_67 
REMARK   18  A    between atoms: C29_37  and  C40_56 
REMARK   19  A    between atoms: C33_43  and  O9_55 
REMARK   20  A    between atoms: C36_48  and  C38_52 
REMARK   21  A    between atoms: C38_52  and  O8_54 
REMARK   22  A    between atoms: C40_56  and  C41_57 
REMARK   23  A    between atoms: C40_56  and  O12_66 
REMARK   24  A    between atoms: C41_57  and  C42_58 
REMARK   25  A    between atoms: C41_57  and  O11_65 
REMARK   26  A    between atoms: C45_61  and  O10_64 
REMARK   27  A    between atoms: C48_67  and  C49_68 
REMARK   28  A    between atoms: C48_67  and  O13_71 
REMARK   29  A    between atoms: C49_68  and  C50_69 
REMARK   30  A    between atoms: C50_69  and  N8_70 
REMARK   31  A    between atoms: N9_73  and  C51_74 
REMARK   32  A    between atoms: C51_74  and  C52_75 
REMARK   33  A    between atoms: C52_75  and  N10_76 
ROOT
HETATM    1  C17 UNL     1       1.792  -0.493   0.010  1.00  0.00     0.179 C 
HETATM    2  C18 UNL     1       1.229  -1.474  -1.045  1.00  0.00     0.070 C 
HETATM    3  C19 UNL     1       0.271  -2.566  -0.491  1.00  0.00     0.173 C 
HETATM    4  C20 UNL     1      -1.225  -2.100  -0.469  1.00  0.00     0.350 C 
HETATM    5  N2  UNL     1      -1.883  -2.550   0.759  1.00  0.00    -0.327 N 
HETATM    6  C21 UNL     1      -2.845  -1.751   1.463  1.00  0.00     0.244 C 
HETATM    7  O2  UNL     1      -2.839  -0.497   1.343  1.00  0.00    -0.271 OA
HETATM    8  C22 UNL     1      -3.862  -2.402   2.365  1.00  0.00     0.208 C 
HETATM    9  C23 UNL     1      -3.213  -2.963   3.640  1.00  0.00     0.151 C 
HETATM   10  C24 UNL     1      -3.122  -4.478   3.427  1.00  0.00     0.054 C 
HETATM   11  C25 UNL     1      -4.089  -4.816   2.298  1.00  0.00     0.129 C 
HETATM   12  N3  UNL     1      -4.462  -3.547   1.698  1.00  0.00    -0.334 N 
HETATM   13  C26 UNL     1      -5.272  -3.474   0.512  1.00  0.00     0.246 C 
HETATM   14  O3  UNL     1      -5.015  -4.243  -0.453  1.00  0.00    -0.271 OA
HETATM   15  C27 UNL     1      -6.482  -2.568   0.423  1.00  0.00     0.205 C 
HETATM   16  N4  UNL     1      -6.071  -1.152   0.382  1.00  0.00    -0.344 N 
HETATM   17  C28 UNL     1      -6.480  -0.086   1.267  1.00  0.00     0.243 C 
HETATM   18  O4  UNL     1      -6.827  -0.335   2.452  1.00  0.00    -0.271 OA
HETATM   19  C29 UNL     1      -6.511   1.356   0.802  1.00  0.00     0.208 C 
HETATM   20  N5  UNL     1      -5.213   1.771   0.253  1.00  0.00    -0.344 N 
HETATM   21  C30 UNL     1      -4.859   3.158   0.118  1.00  0.00     0.241 C 
HETATM   22  O5  UNL     1      -5.522   4.040   0.729  1.00  0.00    -0.271 OA
HETATM   23  C31 UNL     1      -3.736   3.591  -0.792  1.00  0.00     0.181 C 
HETATM   24  C32 UNL     1      -4.121   3.422  -2.262  1.00  0.00     0.068 C 
HETATM   25  C33 UNL     1      -3.388   2.170  -2.753  1.00  0.00     0.138 C 
HETATM   26  C34 UNL     1      -2.247   1.947  -1.763  1.00  0.00     0.158 C 
HETATM   27  N6  UNL     1      -2.544   2.773  -0.604  1.00  0.00    -0.334 N 
HETATM   28  C35 UNL     1      -1.760   2.819   0.607  1.00  0.00     0.246 C 
HETATM   29  O6  UNL     1      -2.347   3.047   1.699  1.00  0.00    -0.271 OA
HETATM   30  C36 UNL     1      -0.245   2.727   0.634  1.00  0.00     0.205 C 
HETATM   31  N7  UNL     1       0.266   1.552  -0.083  1.00  0.00    -0.344 N 
HETATM   32  C37 UNL     1       0.721   0.380   0.610  1.00  0.00     0.241 C 
HETATM   33  O7  UNL     1       0.229   0.077   1.731  1.00  0.00    -0.271 OA
HETATM   34  H38 UNL     1      -1.835  -3.571   0.979  1.00  0.00     0.164 HD
HETATM   35  H46 UNL     1      -5.531  -0.884  -0.469  1.00  0.00     0.163 HD
HETATM   36  H48 UNL     1      -4.538   1.057  -0.096  1.00  0.00     0.163 HD
HETATM   37  H56 UNL     1       0.494   1.624  -1.097  1.00  0.00     0.163 HD
ENDROOT
BRANCH   1  38
HETATM   38  N1  UNL     1       2.821   0.356  -0.600  1.00  0.00    -0.348 N 
HETATM   39  C16 UNL     1       3.815   1.036   0.181  1.00  0.00     0.218 C 
HETATM   40  O1  UNL     1       3.914   0.812   1.418  1.00  0.00    -0.274 OA
HETATM   41  H32 UNL     1       2.755   0.576  -1.620  1.00  0.00     0.163 HD
BRANCH  39  42
HETATM   42  C15 UNL     1       4.736   2.030  -0.465  1.00  0.00     0.103 C 
BRANCH  42  43
HETATM   43  C14 UNL     1       5.641   1.386  -1.528  1.00  0.00     0.009 C 
BRANCH  43  44
HETATM   44  C13 UNL     1       6.564   0.274  -0.989  1.00  0.00     0.000 C 
BRANCH  44  45
HETATM   45  C12 UNL     1       7.579   0.727   0.075  1.00  0.00     0.000 C 
BRANCH  45  46
HETATM   46  C11 UNL     1       8.557   1.793  -0.450  1.00  0.00     0.000 C 
BRANCH  46  47
HETATM   47  C10 UNL     1       9.691   2.115   0.541  1.00  0.00     0.000 C 
BRANCH  47  48
HETATM   48  C9  UNL     1      10.685   0.966   0.805  1.00  0.00     0.000 C 
BRANCH  48  49
HETATM   49  C8  UNL     1      11.370   0.453  -0.475  1.00  0.00     0.004 C 
BRANCH  49  50
HETATM   50  C6  UNL     1      12.512  -0.545  -0.174  1.00  0.00    -0.018 C 
HETATM   51  C7  UNL     1      12.918  -1.271  -1.464  1.00  0.00     0.010 C 
BRANCH  50  52
HETATM   52  C5  UNL     1      13.750   0.155   0.469  1.00  0.00     0.008 C 
BRANCH  52  53
HETATM   53  C3  UNL     1      13.999  -0.283   1.934  1.00  0.00    -0.019 C 
HETATM   54  C4  UNL     1      14.590  -1.702   2.006  1.00  0.00     0.010 C 
BRANCH  53  55
HETATM   55  C2  UNL     1      14.871   0.739   2.705  1.00  0.00    -0.000 C 
HETATM   56  C1  UNL     1      16.271   0.949   2.121  1.00  0.00     0.005 C 
ENDBRANCH  53  55
ENDBRANCH  52  53
ENDBRANCH  50  52
ENDBRANCH  49  50
ENDBRANCH  48  49
ENDBRANCH  47  48
ENDBRANCH  46  47
ENDBRANCH  45  46
ENDBRANCH  44  45
ENDBRANCH  43  44
ENDBRANCH  42  43
ENDBRANCH  39  42
ENDBRANCH   1  38
BRANCH   3  57
HETATM   57  O15 UNL     1       0.686  -2.975   0.792  1.00  0.00    -0.392 OA
HETATM   58  H88 UNL     1       1.505  -3.525   0.671  1.00  0.00     0.210 HD
ENDBRANCH   3  57
BRANCH   4  59
HETATM   59  N9  UNL     1      -1.997  -2.631  -1.609  1.00  0.00     0.110 N 
HETATM   60  H81 UNL     1      -1.896  -3.673  -1.645  1.00  0.00     0.318 HD
BRANCH  59  61
HETATM   61  C51 UNL     1      -1.595  -2.065  -2.902  1.00  0.00     0.302 C 
BRANCH  61  62
HETATM   62  C52 UNL     1      -2.621  -2.430  -3.977  1.00  0.00     0.296 C 
BRANCH  62  63
HETATM   63  N10 UNL     1      -3.894  -1.763  -3.718  1.00  0.00     0.080 N 
HETATM   64  H86 UNL     1      -4.333  -2.206  -2.877  1.00  0.00     0.312 HD
HETATM   65  H87 UNL     1      -4.528  -1.973  -4.523  1.00  0.00     0.312 HD
ENDBRANCH  62  63
ENDBRANCH  61  62
ENDBRANCH  59  61
ENDBRANCH   4  59
BRANCH  30  66
HETATM   66  C38 UNL     1       0.471   4.031   0.187  1.00  0.00     0.146 C 
HETATM   67  C39 UNL     1       0.199   4.466  -1.262  1.00  0.00     0.042 C 
BRANCH  66  68
HETATM   68  O8  UNL     1       0.171   5.083   1.073  1.00  0.00    -0.393 OA
HETATM   69  H61 UNL     1      -0.777   5.339   0.928  1.00  0.00     0.210 HD
ENDBRANCH  66  68
ENDBRANCH  30  66
BRANCH   9  70
HETATM   70  O14 UNL     1      -4.035  -2.702   4.750  1.00  0.00    -0.393 OA
HETATM   71  H80 UNL     1      -3.860  -1.760   5.015  1.00  0.00     0.210 HD
ENDBRANCH   9  70
BRANCH  25  72
HETATM   72  O9  UNL     1      -4.252   1.064  -2.743  1.00  0.00    -0.394 OA
HETATM   73  H62 UNL     1      -4.804   1.128  -3.565  1.00  0.00     0.210 HD
ENDBRANCH  25  72
BRANCH  15  74
HETATM   74  C48 UNL     1      -7.566  -2.929   1.479  1.00  0.00     0.151 C 
BRANCH  74  75
HETATM   75  C49 UNL     1      -8.219  -4.291   1.145  1.00  0.00     0.064 C 
BRANCH  75  76
HETATM   76  C50 UNL     1      -9.406  -4.632   2.056  1.00  0.00     0.269 C 
BRANCH  76  77
HETATM   77  N8  UNL     1     -10.478  -3.650   1.915  1.00  0.00     0.078 N 
HETATM   78  H77 UNL     1     -11.252  -3.930   2.560  1.00  0.00     0.312 HD
HETATM   79  H78 UNL     1     -10.859  -3.719   0.942  1.00  0.00     0.312 HD
ENDBRANCH  76  77
ENDBRANCH  75  76
ENDBRANCH  74  75
BRANCH  74  80
HETATM   80  O13 UNL     1      -7.005  -2.983   2.768  1.00  0.00    -0.393 OA
HETATM   81  H79 UNL     1      -7.716  -2.722   3.410  1.00  0.00     0.210 HD
ENDBRANCH  74  80
ENDBRANCH  15  74
BRANCH  19  82
HETATM   82  C40 UNL     1      -7.645   1.625  -0.225  1.00  0.00     0.183 C 
BRANCH  82  83
HETATM   83  C41 UNL     1      -9.057   1.516   0.411  1.00  0.00     0.182 C 
BRANCH  83  84
HETATM   84  C42 UNL     1     -10.121   2.101  -0.502  1.00  0.00    -0.027 A 
HETATM   85  C43 UNL     1     -10.722   1.340  -1.524  1.00  0.00     0.012 A 
HETATM   86  C44 UNL     1     -11.700   1.905  -2.348  1.00  0.00     0.037 A 
HETATM   87  C45 UNL     1     -12.073   3.242  -2.183  1.00  0.00     0.065 A 
HETATM   88  C46 UNL     1     -11.461   4.016  -1.188  1.00  0.00     0.037 A 
HETATM   89  C47 UNL     1     -10.493   3.450  -0.354  1.00  0.00     0.012 A 
BRANCH  87  90
HETATM   90  O10 UNL     1     -13.050   3.791  -3.011  1.00  0.00    -0.361 OA
HETATM   91  H69 UNL     1     -13.350   4.753  -2.908  1.00  0.00     0.217 HD
ENDBRANCH  87  90
ENDBRANCH  83  84
BRANCH  83  92
HETATM   92  O11 UNL     1      -9.385   0.204   0.799  1.00  0.00    -0.388 OA
HETATM   93  H70 UNL     1      -9.203  -0.405   0.040  1.00  0.00     0.210 HD
ENDBRANCH  83  92
ENDBRANCH  82  83
BRANCH  82  94
HETATM   94  O12 UNL     1      -7.536   0.768  -1.334  1.00  0.00    -0.390 OA
HETATM   95  H71 UNL     1      -6.830   1.142  -1.922  1.00  0.00     0.210 HD
ENDBRANCH  82  94
ENDBRANCH  19  82
TORSDOF 33
