REMARK  28 active torsions:
REMARK  status: ('A' for Active; 'I' for Inactive)
REMARK    1  A    between atoms: C2_2  and  C3_3 
REMARK    2  A    between atoms: C3_3  and  C4_4 
REMARK    3  A    between atoms: C4_4  and  C5_5 
REMARK    4  A    between atoms: C5_5  and  O1_6 
REMARK    5  A    between atoms: O1_6  and  C6_7 
REMARK    6  A    between atoms: C9_10  and  C12_13 
REMARK    7  A    between atoms: C14_15  and  C15_18 
REMARK    8  A    between atoms: C18_21  and  C21_24 
REMARK       I    between atoms: C21_24  and  N2_26 
REMARK    9  A    between atoms: N2_26  and  C22_27 
REMARK   10  A    between atoms: C24_29  and  O23_89 
REMARK   11  A    between atoms: C25_30  and  O22_88 
REMARK   12  A    between atoms: C28_35  and  O21_87 
REMARK   13  A    between atoms: C32_41  and  C53_80 
REMARK   14  A    between atoms: C34_45  and  C45_64 
REMARK   15  A    between atoms: C38_51  and  O11_63 
REMARK   16  A    between atoms: C41_56  and  C43_60 
REMARK   17  A    between atoms: C43_60  and  O10_62 
REMARK   18  A    between atoms: C45_64  and  C46_65 
REMARK   19  A    between atoms: C45_64  and  O18_79 
REMARK   20  A    between atoms: C46_65  and  C47_66 
REMARK   21  A    between atoms: C46_65  and  O17_78 
REMARK   22  A    between atoms: C49_68  and  O13_73 
REMARK   23  A    between atoms: C50_69  and  O12_72 
REMARK   24  A    between atoms: O13_73  and  S1_74 
REMARK   25  A    between atoms: S1_74  and  O16_77 
REMARK   26  A    between atoms: C53_80  and  C54_81 
REMARK   27  A    between atoms: C53_80  and  O20_85 
REMARK   28  A    between atoms: C54_81  and  C55_82 
REMARK       I    between atoms: C55_82  and  N9_84 
ROOT
HETATM    1  C22 UNL     1       0.891   0.346  -2.308  1.00  0.00     0.179 C 
HETATM    2  C23 UNL     1       0.715   1.623  -1.448  1.00  0.00     0.071 C 
HETATM    3  C24 UNL     1       0.766   1.417   0.094  1.00  0.00     0.169 C 
HETATM    4  C25 UNL     1      -0.645   1.446   0.742  1.00  0.00     0.249 C 
HETATM    5  N3  UNL     1      -1.040   2.806   1.131  1.00  0.00    -0.331 N 
HETATM    6  C26 UNL     1      -2.073   3.524   0.448  1.00  0.00     0.245 C 
HETATM    7  O4  UNL     1      -2.146   3.480  -0.810  1.00  0.00    -0.271 OA
HETATM    8  C27 UNL     1      -3.122   4.272   1.234  1.00  0.00     0.208 C 
HETATM    9  C28 UNL     1      -3.255   5.729   0.759  1.00  0.00     0.155 C 
HETATM   10  C29 UNL     1      -4.620   5.821   0.041  1.00  0.00     0.031 C 
HETATM   11  C30 UNL     1      -5.227   4.416   0.074  1.00  0.00     0.134 C 
HETATM   12  N4  UNL     1      -4.423   3.650   1.015  1.00  0.00    -0.334 N 
HETATM   13  C31 UNL     1      -4.725   2.326   1.526  1.00  0.00     0.246 C 
HETATM   14  O5  UNL     1      -3.774   1.620   1.960  1.00  0.00    -0.271 OA
HETATM   15  C32 UNL     1      -6.126   1.748   1.680  1.00  0.00     0.206 C 
HETATM   16  N5  UNL     1      -6.916   1.787   0.444  1.00  0.00    -0.344 N 
HETATM   17  C33 UNL     1      -7.968   0.835   0.233  1.00  0.00     0.243 C 
HETATM   18  O6  UNL     1      -9.029   0.930   0.906  1.00  0.00    -0.271 OA
HETATM   19  C34 UNL     1      -7.839  -0.266  -0.805  1.00  0.00     0.208 C 
HETATM   20  N6  UNL     1      -6.524  -0.244  -1.458  1.00  0.00    -0.344 N 
HETATM   21  C35 UNL     1      -6.321  -0.714  -2.803  1.00  0.00     0.241 C 
HETATM   22  O7  UNL     1      -7.245  -1.325  -3.403  1.00  0.00    -0.271 OA
HETATM   23  C36 UNL     1      -5.044  -0.410  -3.549  1.00  0.00     0.181 C 
HETATM   24  C37 UNL     1      -5.125   0.962  -4.217  1.00  0.00     0.068 C 
HETATM   25  C38 UNL     1      -4.444   1.923  -3.239  1.00  0.00     0.138 C 
HETATM   26  C39 UNL     1      -3.469   1.062  -2.441  1.00  0.00     0.158 C 
HETATM   27  N7  UNL     1      -3.919  -0.304  -2.634  1.00  0.00    -0.334 N 
HETATM   28  C40 UNL     1      -3.155  -1.427  -2.187  1.00  0.00     0.246 C 
HETATM   29  O8  UNL     1      -3.285  -1.829  -1.000  1.00  0.00    -0.271 OA
HETATM   30  C41 UNL     1      -2.133  -2.045  -3.111  1.00  0.00     0.205 C 
HETATM   31  N8  UNL     1      -0.937  -1.194  -3.209  1.00  0.00    -0.344 N 
HETATM   32  C42 UNL     1      -0.182  -0.694  -2.089  1.00  0.00     0.241 C 
HETATM   33  O9  UNL     1      -0.373  -1.163  -0.935  1.00  0.00    -0.271 OA
HETATM   34  C56 UNL     1      -4.485   6.355  -1.391  1.00  0.00     0.014 C 
HETATM   35  H27 UNL     1      -0.713   3.174   2.054  1.00  0.00     0.165 HD
HETATM   36  H34 UNL     1      -6.501   2.200  -0.416  1.00  0.00     0.163 HD
HETATM   37  H36 UNL     1      -5.687   0.026  -0.896  1.00  0.00     0.163 HD
HETATM   38  H44 UNL     1      -0.671  -0.862  -4.163  1.00  0.00     0.163 HD
ENDROOT
BRANCH   1  39
HETATM   39  N2  UNL     1       2.217  -0.249  -2.106  1.00  0.00    -0.344 N 
HETATM   40  C21 UNL     1       3.140  -0.480  -3.182  1.00  0.00     0.252 C 
HETATM   41  O3  UNL     1       2.729  -0.462  -4.375  1.00  0.00    -0.268 OA
HETATM   42  H21 UNL     1       2.466  -0.615  -1.161  1.00  0.00     0.163 HD
BRANCH  40  43
HETATM   43  C18 UNL     1       4.569  -0.763  -2.908  1.00  0.00     0.032 A 
HETATM   44  C17 UNL     1       5.356  -1.426  -3.865  1.00  0.00     0.018 A 
HETATM   45  C16 UNL     1       6.705  -1.693  -3.615  1.00  0.00     0.015 A 
HETATM   46  C15 UNL     1       7.301  -1.297  -2.406  1.00  0.00    -0.005 A 
HETATM   47  C20 UNL     1       6.517  -0.621  -1.454  1.00  0.00     0.015 A 
HETATM   48  C19 UNL     1       5.168  -0.354  -1.704  1.00  0.00     0.018 A 
BRANCH  46  49
HETATM   49  C14 UNL     1       8.733  -1.595  -2.154  1.00  0.00     0.097 A 
HETATM   50  C13 UNL     1       9.462  -1.292  -1.017  1.00  0.00     0.075 A 
HETATM   51  C12 UNL     1      10.723  -1.791  -1.287  1.00  0.00     0.114 A 
HETATM   52  O2  UNL     1      10.707  -2.331  -2.484  1.00  0.00    -0.212 OA
HETATM   53  N1  UNL     1       9.532  -2.232  -3.033  1.00  0.00    -0.127 NA
BRANCH  51  54
HETATM   54  C9  UNL     1      11.916  -1.756  -0.412  1.00  0.00     0.000 A 
HETATM   55  C8  UNL     1      13.089  -2.416  -0.812  1.00  0.00     0.017 A 
HETATM   56  C7  UNL     1      14.222  -2.408   0.006  1.00  0.00     0.037 A 
HETATM   57  C6  UNL     1      14.212  -1.734   1.231  1.00  0.00     0.068 A 
HETATM   58  C11 UNL     1      13.042  -1.063   1.634  1.00  0.00     0.037 A 
HETATM   59  C10 UNL     1      11.905  -1.076   0.820  1.00  0.00     0.017 A 
BRANCH  57  60
HETATM   60  O1  UNL     1      15.379  -1.769   2.013  1.00  0.00    -0.351 OA
BRANCH  60  61
HETATM   61  C5  UNL     1      15.595  -1.034   3.217  1.00  0.00     0.175 C 
BRANCH  61  62
HETATM   62  C4  UNL     1      15.870   0.440   2.901  1.00  0.00     0.027 C 
BRANCH  62  63
HETATM   63  C3  UNL     1      16.370   1.233   4.120  1.00  0.00     0.002 C 
BRANCH  63  64
HETATM   64  C2  UNL     1      15.293   1.439   5.205  1.00  0.00    -0.004 C 
HETATM   65  C1  UNL     1      15.464   0.486   6.387  1.00  0.00     0.005 C 
ENDBRANCH  63  64
ENDBRANCH  62  63
ENDBRANCH  61  62
ENDBRANCH  60  61
ENDBRANCH  57  60
ENDBRANCH  51  54
ENDBRANCH  46  49
ENDBRANCH  40  43
ENDBRANCH   1  39
BRANCH   3  66
HETATM   66  O23 UNL     1       1.579   2.399   0.687  1.00  0.00    -0.391 OA
HETATM   67  H71 UNL     1       2.518   2.176   0.455  1.00  0.00     0.210 HD
ENDBRANCH   3  66
BRANCH   4  68
HETATM   68  O22 UNL     1      -0.685   0.608   1.870  1.00  0.00    -0.374 OA
HETATM   69  H70 UNL     1      -0.010   0.945   2.516  1.00  0.00     0.212 HD
ENDBRANCH   4  68
BRANCH  30  70
HETATM   70  C43 UNL     1      -1.791  -3.518  -2.771  1.00  0.00     0.146 C 
HETATM   71  C44 UNL     1      -0.856  -4.126  -3.822  1.00  0.00     0.042 C 
BRANCH  70  72
HETATM   72  O10 UNL     1      -1.202  -3.623  -1.502  1.00  0.00    -0.393 OA
HETATM   73  H49 UNL     1      -1.321  -4.562  -1.204  1.00  0.00     0.210 HD
ENDBRANCH  70  72
ENDBRANCH  30  70
BRANCH   9  74
HETATM   74  O21 UNL     1      -3.231   6.589   1.869  1.00  0.00    -0.393 OA
HETATM   75  H69 UNL     1      -3.139   7.511   1.512  1.00  0.00     0.210 HD
ENDBRANCH   9  74
BRANCH  25  76
HETATM   76  O11 UNL     1      -3.767   2.950  -3.913  1.00  0.00    -0.394 OA
HETATM   77  H50 UNL     1      -4.465   3.566  -4.258  1.00  0.00     0.210 HD
ENDBRANCH  25  76
BRANCH  15  78
HETATM   78  C53 UNL     1      -6.892   2.301   2.914  1.00  0.00     0.158 C 
BRANCH  78  79
HETATM   79  C54 UNL     1      -7.329   3.765   2.771  1.00  0.00     0.137 C 
BRANCH  79  80
HETATM   80  C55 UNL     1      -8.178   4.188   3.935  1.00  0.00     0.217 C 
HETATM   81  O19 UNL     1      -9.432   4.086   3.865  1.00  0.00    -0.274 OA
HETATM   82  N9  UNL     1      -7.573   4.667   5.136  1.00  0.00    -0.370 N 
HETATM   83  H63 UNL     1      -6.535   4.736   5.218  1.00  0.00     0.159 HD
HETATM   84  H64 UNL     1      -8.165   4.958   5.945  1.00  0.00     0.159 HD
ENDBRANCH  79  80
ENDBRANCH  78  79
BRANCH  78  85
HETATM   85  O20 UNL     1      -6.094   2.165   4.064  1.00  0.00    -0.393 OA
HETATM   86  H65 UNL     1      -6.109   1.204   4.314  1.00  0.00     0.210 HD
ENDBRANCH  78  85
ENDBRANCH  15  78
BRANCH  19  87
HETATM   87  C45 UNL     1      -8.109  -1.677  -0.211  1.00  0.00     0.183 C 
BRANCH  87  88
HETATM   88  C46 UNL     1      -7.179  -2.024   0.992  1.00  0.00     0.182 C 
BRANCH  88  89
HETATM   89  C47 UNL     1      -6.947  -3.518   1.166  1.00  0.00    -0.024 A 
HETATM   90  C48 UNL     1      -8.017  -4.433   1.153  1.00  0.00     0.051 A 
HETATM   91  C49 UNL     1      -7.794  -5.807   1.368  1.00  0.00     0.124 A 
HETATM   92  C50 UNL     1      -6.491  -6.260   1.619  1.00  0.00     0.100 A 
HETATM   93  C51 UNL     1      -5.425  -5.353   1.647  1.00  0.00     0.040 A 
HETATM   94  C52 UNL     1      -5.651  -3.994   1.429  1.00  0.00     0.013 A 
BRANCH  91  95
HETATM   95  O13 UNL     1      -8.832  -6.750   1.346  1.00  0.00    -0.218 OA
BRANCH  95  96
HETATM   96  S1  UNL     1     -10.460  -6.398   0.952  1.00  0.00     0.245 S 
HETATM   97  O14 UNL     1     -11.269  -7.663   1.001  1.00  0.00    -0.579 OA
HETATM   98  O15 UNL     1     -10.524  -5.823  -0.436  1.00  0.00    -0.579 OA
BRANCH  96  99
HETATM   99  O16 UNL     1     -11.092  -5.290   2.047  1.00  0.00    -0.273 OA
HETATM  100  H57 UNL     1     -10.840  -5.643   2.938  1.00  0.00     0.234 HD
ENDBRANCH  96  99
ENDBRANCH  95  96
ENDBRANCH  91  95
BRANCH  92 101
HETATM  101  O12 UNL     1      -6.264  -7.618   1.843  1.00  0.00    -0.358 OA
HETATM  102  H56 UNL     1      -5.335  -7.977   2.031  1.00  0.00     0.217 HD
ENDBRANCH  92 101
ENDBRANCH  88  89
BRANCH  88 103
HETATM  103  O17 UNL     1      -7.649  -1.456   2.191  1.00  0.00    -0.388 OA
HETATM  104  H58 UNL     1      -8.466  -1.949   2.464  1.00  0.00     0.210 HD
ENDBRANCH  88 103
ENDBRANCH  87  88
BRANCH  87 105
HETATM  105  O18 UNL     1      -9.459  -1.781   0.167  1.00  0.00    -0.390 OA
HETATM  106  H59 UNL     1      -9.987  -1.893  -0.666  1.00  0.00     0.210 HD
ENDBRANCH  87 105
ENDBRANCH  19  87
TORSDOF 28
