REMARK  32 active torsions:
REMARK  status: ('A' for Active; 'I' for Inactive)
REMARK    1  A    between atoms: C2_2  and  C3_3 
REMARK    2  A    between atoms: C3_3  and  C5_5 
REMARK    3  A    between atoms: C5_5  and  C6_6 
REMARK    4  A    between atoms: C6_6  and  C7_7 
REMARK    5  A    between atoms: C8_8  and  C9_9 
REMARK    6  A    between atoms: C10_10  and  C12_12 
REMARK    7  A    between atoms: C12_12  and  C13_13 
REMARK    8  A    between atoms: C12_12  and  O17_64 
REMARK    9  A    between atoms: C13_13  and  C14_14 
REMARK   10  A    between atoms: C15_15  and  C16_16 
REMARK   11  A    between atoms: C17_17  and  C18_18 
REMARK   12  A    between atoms: C18_18  and  O2_20 
REMARK   13  A    between atoms: O2_20  and  C19_21 
REMARK   14  A    between atoms: C20_22  and  O9_40 
REMARK   15  A    between atoms: C21_23  and  C31_38 
REMARK   16  A    between atoms: C23_26  and  O4_27 
REMARK   17  A    between atoms: C28_33  and  O7_37 
REMARK   18  A    between atoms: C30_35  and  O6_36 
REMARK   19  A    between atoms: C31_38  and  O8_39 
REMARK   20  A    between atoms: O9_40  and  C32_41 
REMARK   21  A    between atoms: C33_42  and  O16_63 
REMARK   22  A    between atoms: C34_43  and  O15_62 
REMARK   23  A    between atoms: C35_44  and  O14_61 
REMARK   24  A    between atoms: C36_45  and  C37_47 
REMARK   25  A    between atoms: C37_47  and  O11_48 
REMARK   26  A    between atoms: O11_48  and  C38_49 
REMARK   27  A    between atoms: C38_49  and  C39_51 
REMARK   28  A    between atoms: C40_52  and  C41_53 
REMARK   29  A    between atoms: C42_54  and  C43_55 
REMARK   30  A    between atoms: C44_56  and  C45_57 
REMARK   31  A    between atoms: C45_57  and  C46_58 
REMARK   32  A    between atoms: C45_57  and  O13_60 
ROOT
HETATM    1  C19 UNL     1      -1.015  -4.962   0.048  1.00  0.00     0.198 C 
HETATM    2  C20 UNL     1      -2.385  -5.290  -0.565  1.00  0.00     0.188 C 
HETATM    3  C21 UNL     1      -2.545  -6.830  -0.636  1.00  0.00     0.180 C 
HETATM    4  O3  UNL     1      -1.509  -7.399  -1.422  1.00  0.00    -0.339 OA
HETATM    5  C22 UNL     1      -0.230  -7.199  -0.841  1.00  0.00     0.226 A 
HETATM    6  C23 UNL     1       0.100  -5.688  -0.721  1.00  0.00     0.218 C 
HETATM    7  C24 UNL     1       0.775  -7.885  -1.695  1.00  0.00     0.048 A 
HETATM    8  C25 UNL     1       1.428  -8.803  -0.950  1.00  0.00    -0.017 A 
HETATM    9  C26 UNL     1       0.890  -8.788   0.417  1.00  0.00     0.211 A 
HETATM   10  O5  UNL     1      -0.155  -7.825   0.443  1.00  0.00    -0.344 OA
HETATM   11  C27 UNL     1       2.429  -9.614  -1.487  1.00  0.00     0.046 A 
HETATM   12  C28 UNL     1       2.753  -9.465  -2.849  1.00  0.00     0.069 A 
HETATM   13  C29 UNL     1       2.064  -8.519  -3.633  1.00  0.00     0.073 A 
HETATM   14  C30 UNL     1       1.056  -7.721  -3.058  1.00  0.00     0.080 A 
ENDROOT
BRANCH   2  15
HETATM   15  O9  UNL     1      -3.384  -4.739   0.280  1.00  0.00    -0.348 OA
BRANCH  15  16
HETATM   16  C32 UNL     1      -4.253  -3.870  -0.422  1.00  0.00     0.292 C 
HETATM   17  C33 UNL     1      -5.386  -3.438   0.538  1.00  0.00     0.204 C 
HETATM   18  C34 UNL     1      -5.877  -2.001   0.230  1.00  0.00     0.183 C 
HETATM   19  C35 UNL     1      -5.772  -1.712  -1.279  1.00  0.00     0.180 C 
HETATM   20  C36 UNL     1      -4.322  -1.993  -1.807  1.00  0.00     0.180 C 
HETATM   21  O10 UNL     1      -3.541  -2.729  -0.872  1.00  0.00    -0.348 OA
BRANCH  17  22
HETATM   22  O16 UNL     1      -6.452  -4.346   0.425  1.00  0.00    -0.388 OA
HETATM   23  H63 UNL     1      -7.003  -4.249   1.246  1.00  0.00     0.210 HD
ENDBRANCH  17  22
BRANCH  18  24
HETATM   24  O15 UNL     1      -5.105  -1.064   0.939  1.00  0.00    -0.390 OA
HETATM   25  H62 UNL     1      -5.424  -1.080   1.879  1.00  0.00     0.210 HD
ENDBRANCH  18  24
BRANCH  19  26
HETATM   26  O14 UNL     1      -6.189  -0.397  -1.552  1.00  0.00    -0.390 OA
HETATM   27  H61 UNL     1      -7.174  -0.374  -1.429  1.00  0.00     0.210 HD
ENDBRANCH  19  26
BRANCH  20  28
HETATM   28  C37 UNL     1      -3.551  -0.717  -2.174  1.00  0.00     0.213 C 
BRANCH  28  29
HETATM   29  O11 UNL     1      -3.273   0.034  -0.997  1.00  0.00    -0.316 OA
BRANCH  29  30
HETATM   30  C38 UNL     1      -2.876   1.373  -1.017  1.00  0.00     0.282 C 
HETATM   31  O12 UNL     1      -2.979   2.057  -2.071  1.00  0.00    -0.260 OA
BRANCH  30  32
HETATM   32  C39 UNL     1      -2.338   1.998   0.199  1.00  0.00     0.082 C 
HETATM   33  C40 UNL     1      -1.980   1.269   1.259  1.00  0.00     0.006 C 
BRANCH  33  34
HETATM   34  C41 UNL     1      -1.351   1.895   2.432  1.00  0.00     0.000 C 
HETATM   35  C42 UNL     1      -0.876   1.149   3.431  1.00  0.00    -0.000 C 
BRANCH  35  36
HETATM   36  C43 UNL     1      -0.227   1.768   4.597  1.00  0.00    -0.002 C 
HETATM   37  C44 UNL     1       0.284   1.019   5.578  1.00  0.00     0.004 C 
BRANCH  37  38
HETATM   38  C45 UNL     1       0.931   1.653   6.782  1.00  0.00     0.140 C 
BRANCH  38  39
HETATM   39  C46 UNL     1       1.398   0.597   7.805  1.00  0.00     0.031 C 
HETATM   40  C47 UNL     1       2.586  -0.236   7.315  1.00  0.00     0.008 C 
ENDBRANCH  38  39
BRANCH  38  41
HETATM   41  O13 UNL     1       2.011   2.453   6.370  1.00  0.00    -0.392 OA
HETATM   42  H60 UNL     1       2.237   3.043   7.137  1.00  0.00     0.210 HD
ENDBRANCH  38  41
ENDBRANCH  37  38
ENDBRANCH  35  36
ENDBRANCH  33  34
ENDBRANCH  30  32
ENDBRANCH  29  30
ENDBRANCH  28  29
ENDBRANCH  20  28
ENDBRANCH  15  16
ENDBRANCH   2  15
BRANCH   1  43
HETATM   43  O2  UNL     1      -0.795  -3.550  -0.003  1.00  0.00    -0.307 OA
BRANCH  43  44
HETATM   44  C18 UNL     1       0.020  -2.865   0.908  1.00  0.00     0.283 C 
HETATM   45  O1  UNL     1       0.388  -3.419   1.979  1.00  0.00    -0.260 OA
BRANCH  44  46
HETATM   46  C17 UNL     1       0.473  -1.497   0.625  1.00  0.00     0.082 C 
HETATM   47  C16 UNL     1       0.198  -0.878  -0.526  1.00  0.00     0.006 C 
BRANCH  47  48
HETATM   48  C15 UNL     1       0.759   0.452  -0.813  1.00  0.00    -0.004 C 
HETATM   49  C14 UNL     1       0.510   1.073  -1.968  1.00  0.00    -0.024 C 
BRANCH  49  50
HETATM   50  C13 UNL     1       1.149   2.392  -2.309  1.00  0.00     0.063 C 
BRANCH  50  51
HETATM   51  C12 UNL     1       0.498   3.565  -1.555  1.00  0.00     0.150 C 
BRANCH  51  52
HETATM   52  C10 UNL     1       1.029   4.890  -2.075  1.00  0.00    -0.055 C 
HETATM   53  C9  UNL     1       2.306   5.241  -1.818  1.00  0.00     0.005 C 
HETATM   54  C11 UNL     1       0.106   5.793  -2.854  1.00  0.00     0.046 C 
BRANCH  53  55
HETATM   55  C8  UNL     1       2.917   6.510  -2.265  1.00  0.00    -0.004 C 
HETATM   56  C7  UNL     1       4.169   6.822  -1.921  1.00  0.00    -0.027 C 
BRANCH  56  57
HETATM   57  C6  UNL     1       4.809   8.113  -2.351  1.00  0.00     0.027 C 
BRANCH  57  58
HETATM   58  C5  UNL     1       4.149   9.351  -1.713  1.00  0.00     0.008 C 
BRANCH  58  59
HETATM   59  C3  UNL     1       4.070   9.326  -0.164  1.00  0.00    -0.019 C 
HETATM   60  C4  UNL     1       3.219  10.514   0.315  1.00  0.00     0.010 C 
BRANCH  59  61
HETATM   61  C2  UNL     1       5.480   9.351   0.477  1.00  0.00    -0.000 C 
HETATM   62  C1  UNL     1       5.449   9.235   2.002  1.00  0.00     0.005 C 
ENDBRANCH  59  61
ENDBRANCH  58  59
ENDBRANCH  57  58
ENDBRANCH  56  57
ENDBRANCH  53  55
ENDBRANCH  51  52
BRANCH  51  63
HETATM   63  O17 UNL     1       0.751   3.453  -0.177  1.00  0.00    -0.391 OA
HETATM   64  H64 UNL     1       0.148   4.098   0.278  1.00  0.00     0.210 HD
ENDBRANCH  51  63
ENDBRANCH  50  51
ENDBRANCH  49  50
ENDBRANCH  47  48
ENDBRANCH  44  46
ENDBRANCH  43  44
ENDBRANCH   1  43
BRANCH   3  65
HETATM   65  C31 UNL     1      -3.886  -7.238  -1.267  1.00  0.00     0.199 C 
BRANCH  65  66
HETATM   66  O8  UNL     1      -4.959  -6.961  -0.407  1.00  0.00    -0.398 OA
HETATM   67  H40 UNL     1      -4.941  -7.653   0.305  1.00  0.00     0.209 HD
ENDBRANCH  65  66
ENDBRANCH   3  65
BRANCH   6  68
HETATM   68  O4  UNL     1       1.321  -5.507  -0.047  1.00  0.00    -0.387 OA
HETATM   69  H31 UNL     1       2.043  -5.602  -0.722  1.00  0.00     0.210 HD
ENDBRANCH   6  68
BRANCH  14  70
HETATM   70  O6  UNL     1       0.349  -6.796  -3.823  1.00  0.00    -0.360 OA
HETATM   71  H36 UNL     1       0.542  -6.670  -4.810  1.00  0.00     0.217 HD
ENDBRANCH  14  70
BRANCH  12  72
HETATM   72  O7  UNL     1       3.747 -10.247  -3.431  1.00  0.00    -0.361 OA
HETATM   73  H37 UNL     1       4.260 -10.936  -2.893  1.00  0.00     0.217 HD
ENDBRANCH  12  72
TORSDOF 32
