REMARK  26 active torsions:
REMARK  status: ('A' for Active; 'I' for Inactive)
REMARK    1  A    between atoms: C2_2  and  C3_3 
REMARK    2  A    between atoms: C3_3  and  C4_4 
REMARK    3  A    between atoms: C4_4  and  C5_5 
REMARK    4  A    between atoms: C5_5  and  O1_6 
REMARK    5  A    between atoms: O1_6  and  C6_7 
REMARK    6  A    between atoms: C9_10  and  C12_13 
REMARK    7  A    between atoms: C15_16  and  C18_19 
REMARK    8  A    between atoms: C21_22  and  C24_25 
REMARK       I    between atoms: C24_25  and  N1_27 
REMARK    9  A    between atoms: N1_27  and  C25_28 
REMARK   10  A    between atoms: C27_30  and  O17_82 
REMARK   11  A    between atoms: C28_31  and  O16_81 
REMARK   12  A    between atoms: C31_36  and  O15_80 
REMARK   13  A    between atoms: C35_42  and  C56_76 
REMARK   14  A    between atoms: C37_46  and  C48_65 
REMARK   15  A    between atoms: C41_52  and  O10_64 
REMARK   16  A    between atoms: C44_57  and  C46_61 
REMARK   17  A    between atoms: C46_61  and  O9_63 
REMARK   18  A    between atoms: C48_65  and  C49_66 
REMARK   19  A    between atoms: C48_65  and  O13_75 
REMARK   20  A    between atoms: C49_66  and  C50_67 
REMARK   21  A    between atoms: C49_66  and  O12_74 
REMARK   22  A    between atoms: C53_70  and  O11_73 
REMARK   23  A    between atoms: C56_76  and  O14_78 
REMARK   24  A    between atoms: O17_82  and  C59_83 
REMARK   25  A    between atoms: C59_83  and  C60_84 
REMARK   26  A    between atoms: C60_84  and  N8_85 
ROOT
HETATM    1  C25 UNL     1      -0.960  -1.282  -1.959  1.00  0.00     0.179 C 
HETATM    2  C26 UNL     1      -1.025  -2.816  -2.214  1.00  0.00     0.071 C 
HETATM    3  C27 UNL     1      -2.104  -3.551  -1.382  1.00  0.00     0.172 C 
HETATM    4  C28 UNL     1      -3.503  -3.433  -2.020  1.00  0.00     0.249 C 
HETATM    5  N2  UNL     1      -4.506  -4.065  -1.160  1.00  0.00    -0.331 N 
HETATM    6  C29 UNL     1      -5.059  -3.394  -0.019  1.00  0.00     0.245 C 
HETATM    7  O3  UNL     1      -4.458  -2.405   0.480  1.00  0.00    -0.271 OA
HETATM    8  C30 UNL     1      -6.422  -3.795   0.496  1.00  0.00     0.208 C 
HETATM    9  C31 UNL     1      -6.536  -3.954   2.027  1.00  0.00     0.155 C 
HETATM   10  C32 UNL     1      -7.957  -3.457   2.339  1.00  0.00     0.031 C 
HETATM   11  C33 UNL     1      -8.287  -2.451   1.236  1.00  0.00     0.134 C 
HETATM   12  N3  UNL     1      -7.416  -2.793   0.123  1.00  0.00    -0.334 N 
HETATM   13  C34 UNL     1      -7.701  -2.475  -1.256  1.00  0.00     0.246 C 
HETATM   14  O4  UNL     1      -7.510  -3.361  -2.135  1.00  0.00    -0.271 OA
HETATM   15  C35 UNL     1      -8.121  -1.090  -1.719  1.00  0.00     0.205 C 
HETATM   16  N4  UNL     1      -7.862  -0.058  -0.705  1.00  0.00    -0.344 N 
HETATM   17  C36 UNL     1      -6.538   0.449  -0.473  1.00  0.00     0.243 C 
HETATM   18  O5  UNL     1      -5.538  -0.188  -0.907  1.00  0.00    -0.271 OA
HETATM   19  C37 UNL     1      -6.331   1.741   0.285  1.00  0.00     0.208 C 
HETATM   20  N5  UNL     1      -5.052   2.336  -0.122  1.00  0.00    -0.344 N 
HETATM   21  C38 UNL     1      -4.948   3.397  -1.085  1.00  0.00     0.241 C 
HETATM   22  O6  UNL     1      -5.984   3.857  -1.636  1.00  0.00    -0.271 OA
HETATM   23  C39 UNL     1      -3.603   3.980  -1.450  1.00  0.00     0.181 C 
HETATM   24  C40 UNL     1      -2.869   4.536  -0.227  1.00  0.00     0.068 C 
HETATM   25  C41 UNL     1      -1.824   3.480   0.147  1.00  0.00     0.138 C 
HETATM   26  C42 UNL     1      -1.625   2.617  -1.105  1.00  0.00     0.158 C 
HETATM   27  N6  UNL     1      -2.726   2.953  -2.002  1.00  0.00    -0.334 N 
HETATM   28  C43 UNL     1      -2.931   2.408  -3.327  1.00  0.00     0.246 C 
HETATM   29  O7  UNL     1      -4.078   2.484  -3.845  1.00  0.00    -0.271 OA
HETATM   30  C44 UNL     1      -1.816   1.816  -4.171  1.00  0.00     0.205 C 
HETATM   31  N7  UNL     1      -1.028   0.844  -3.407  1.00  0.00    -0.344 N 
HETATM   32  C45 UNL     1      -1.537  -0.467  -3.102  1.00  0.00     0.241 C 
HETATM   33  O8  UNL     1      -2.541  -0.900  -3.730  1.00  0.00    -0.271 OA
HETATM   34  C58 UNL     1      -8.134  -2.878   3.748  1.00  0.00     0.014 C 
HETATM   35  H30 UNL     1      -4.961  -4.946  -1.492  1.00  0.00     0.165 HD
HETATM   36  H37 UNL     1      -8.666   0.441  -0.260  1.00  0.00     0.163 HD
HETATM   37  H39 UNL     1      -4.178   1.866   0.200  1.00  0.00     0.163 HD
HETATM   38  H47 UNL     1      -0.092   1.131  -3.047  1.00  0.00     0.163 HD
ENDROOT
BRANCH   1  39
HETATM   39  N1  UNL     1       0.435  -0.903  -1.719  1.00  0.00    -0.344 N 
HETATM   40  C24 UNL     1       1.011  -0.879  -0.403  1.00  0.00     0.252 C 
HETATM   41  O2  UNL     1       0.297  -1.147   0.602  1.00  0.00    -0.268 OA
HETATM   42  H24 UNL     1       1.079  -0.901  -2.542  1.00  0.00     0.163 HD
BRANCH  40  43
HETATM   43  C21 UNL     1       2.446  -0.575  -0.214  1.00  0.00     0.032 A 
HETATM   44  C20 UNL     1       3.147  -1.123   0.872  1.00  0.00     0.018 A 
HETATM   45  C19 UNL     1       4.513  -0.879   1.031  1.00  0.00     0.013 A 
HETATM   46  C18 UNL     1       5.208  -0.070   0.113  1.00  0.00    -0.026 A 
HETATM   47  C23 UNL     1       4.496   0.505  -0.955  1.00  0.00     0.013 A 
HETATM   48  C22 UNL     1       3.131   0.255  -1.118  1.00  0.00     0.018 A 
BRANCH  46  49
HETATM   49  C15 UNL     1       6.671   0.153   0.254  1.00  0.00    -0.026 A 
HETATM   50  C14 UNL     1       7.500   0.192  -0.880  1.00  0.00     0.013 A 
HETATM   51  C13 UNL     1       8.877   0.384  -0.749  1.00  0.00     0.013 A 
HETATM   52  C12 UNL     1       9.462   0.533   0.520  1.00  0.00    -0.026 A 
HETATM   53  C17 UNL     1       8.634   0.498   1.655  1.00  0.00     0.013 A 
HETATM   54  C16 UNL     1       7.254   0.313   1.524  1.00  0.00     0.013 A 
BRANCH  52  55
HETATM   55  C9  UNL     1      10.932   0.715   0.658  1.00  0.00    -0.026 A 
HETATM   56  C8  UNL     1      11.461   1.593   1.620  1.00  0.00     0.015 A 
HETATM   57  C7  UNL     1      12.844   1.754   1.749  1.00  0.00     0.037 A 
HETATM   58  C6  UNL     1      13.724   1.055   0.919  1.00  0.00     0.068 A 
HETATM   59  C11 UNL     1      13.202   0.177  -0.048  1.00  0.00     0.037 A 
HETATM   60  C10 UNL     1      11.820   0.008  -0.173  1.00  0.00     0.015 A 
BRANCH  58  61
HETATM   61  O1  UNL     1      15.102   1.259   1.085  1.00  0.00    -0.351 OA
BRANCH  61  62
HETATM   62  C5  UNL     1      16.109   0.623   0.302  1.00  0.00     0.175 C 
BRANCH  62  63
HETATM   63  C4  UNL     1      17.494   1.082   0.756  1.00  0.00     0.027 C 
BRANCH  63  64
HETATM   64  C3  UNL     1      17.696   2.586   0.530  1.00  0.00     0.002 C 
BRANCH  64  65
HETATM   65  C2  UNL     1      19.102   3.022   0.958  1.00  0.00    -0.004 C 
HETATM   66  C1  UNL     1      19.278   4.530   0.816  1.00  0.00     0.005 C 
ENDBRANCH  64  65
ENDBRANCH  63  64
ENDBRANCH  62  63
ENDBRANCH  61  62
ENDBRANCH  58  61
ENDBRANCH  52  55
ENDBRANCH  46  49
ENDBRANCH  40  43
ENDBRANCH   1  39
BRANCH   3  67
HETATM   67  O17 UNL     1      -1.750  -4.926  -1.304  1.00  0.00    -0.380 OA
BRANCH  67  68
HETATM   68  C59 UNL     1      -1.673  -5.384   0.036  1.00  0.00     0.196 C 
BRANCH  68  69
HETATM   69  C60 UNL     1      -0.301  -5.018   0.653  1.00  0.00     0.262 C 
BRANCH  69  70
HETATM   70  N8  UNL     1      -0.121  -5.402   2.086  1.00  0.00    -0.077 N 
HETATM   71  C61 UNL     1       1.262  -5.042   2.485  1.00  0.00     0.271 C 
HETATM   72  C62 UNL     1      -1.063  -4.664   2.964  1.00  0.00     0.271 C 
HETATM   73  C63 UNL     1      -0.297  -6.862   2.281  1.00  0.00     0.271 C 
ENDBRANCH  69  70
ENDBRANCH  68  69
ENDBRANCH  67  68
ENDBRANCH   3  67
BRANCH   4  74
HETATM   74  O16 UNL     1      -3.507  -4.074  -3.272  1.00  0.00    -0.374 OA
HETATM   75  H72 UNL     1      -3.583  -3.373  -3.971  1.00  0.00     0.212 HD
ENDBRANCH   4  74
BRANCH  30  76
HETATM   76  C46 UNL     1      -0.909   2.894  -4.823  1.00  0.00     0.146 C 
HETATM   77  C47 UNL     1      -1.672   3.762  -5.839  1.00  0.00     0.042 C 
BRANCH  76  78
HETATM   78  O9  UNL     1      -0.260   3.694  -3.865  1.00  0.00    -0.393 OA
HETATM   79  H52 UNL     1      -0.921   4.350  -3.519  1.00  0.00     0.210 HD
ENDBRANCH  76  78
ENDBRANCH  30  76
BRANCH   9  80
HETATM   80  O15 UNL     1      -5.585  -3.175   2.714  1.00  0.00    -0.393 OA
HETATM   81  H71 UNL     1      -4.781  -3.747   2.840  1.00  0.00     0.210 HD
ENDBRANCH   9  80
BRANCH  25  82
HETATM   82  O10 UNL     1      -0.623   4.061   0.598  1.00  0.00    -0.394 OA
HETATM   83  H53 UNL     1      -0.252   4.608  -0.143  1.00  0.00     0.210 HD
ENDBRANCH  25  82
BRANCH  15  84
HETATM   84  C56 UNL     1      -9.582  -1.019  -2.247  1.00  0.00     0.146 C 
HETATM   85  C57 UNL     1     -10.645  -1.511  -1.255  1.00  0.00     0.042 C 
BRANCH  84  86
HETATM   86  O14 UNL     1      -9.701  -1.693  -3.477  1.00  0.00    -0.393 OA
HETATM   87  H67 UNL     1      -9.684  -2.669  -3.296  1.00  0.00     0.210 HD
ENDBRANCH  84  86
ENDBRANCH  15  84
BRANCH  19  88
HETATM   88  C48 UNL     1      -6.355   1.498   1.818  1.00  0.00     0.183 C 
BRANCH  88  89
HETATM   89  C49 UNL     1      -6.131   2.780   2.667  1.00  0.00     0.182 C 
BRANCH  89  90
HETATM   90  C50 UNL     1      -7.158   3.861   2.364  1.00  0.00    -0.027 A 
HETATM   91  C51 UNL     1      -8.443   3.781   2.931  1.00  0.00     0.012 A 
HETATM   92  C52 UNL     1      -9.417   4.737   2.624  1.00  0.00     0.037 A 
HETATM   93  C53 UNL     1      -9.122   5.786   1.745  1.00  0.00     0.065 A 
HETATM   94  C54 UNL     1      -7.847   5.877   1.180  1.00  0.00     0.037 A 
HETATM   95  C55 UNL     1      -6.871   4.923   1.484  1.00  0.00     0.012 A 
BRANCH  93  96
HETATM   96  O11 UNL     1     -10.085   6.742   1.429  1.00  0.00    -0.361 OA
HETATM   97  H60 UNL     1     -11.026   6.693   1.805  1.00  0.00     0.217 HD
ENDBRANCH  93  96
ENDBRANCH  89  90
BRANCH  89  98
HETATM   98  O12 UNL     1      -4.818   3.252   2.498  1.00  0.00    -0.388 OA
HETATM   99  H61 UNL     1      -4.654   3.911   3.223  1.00  0.00     0.210 HD
ENDBRANCH  89  98
ENDBRANCH  88  89
BRANCH  88 100
HETATM  100  O13 UNL     1      -7.589   0.930   2.175  1.00  0.00    -0.390 OA
HETATM  101  H62 UNL     1      -7.459   0.482   3.050  1.00  0.00     0.210 HD
ENDBRANCH  88 100
ENDBRANCH  19  88
TORSDOF 26
