MODEL 1
REMARK VINA RESULT:    -8.011      0.000      0.000
REMARK INTER + INTRA:         -16.397
REMARK INTER:                 -13.865
REMARK INTRA:                  -2.532
REMARK UNBOUND:                -2.532
REMARK  Name = 
REMARK  18 active torsions:
REMARK  status: ('A' for Active; 'I' for Inactive)
REMARK    1  A    between atoms: C_2  and  C_33
REMARK    2  A    between atoms: C_3  and  O_21
REMARK    3  A    between atoms: C_4  and  O_20
REMARK    4  A    between atoms: C_5  and  O_19
REMARK    5  A    between atoms: C_6  and  N_7
REMARK    6  A    between atoms: N_7  and  C_8
REMARK    7  A    between atoms: C_10  and  C_17
REMARK    8  A    between atoms: C_11  and  O_16
REMARK    9  A    between atoms: C_12  and  O_15
REMARK   10  A    between atoms: C_13  and  O_14
REMARK   11  A    between atoms: C_17  and  O_18
REMARK   12  A    between atoms: O_21  and  C_22
REMARK   13  A    between atoms: C_23  and  O_32
REMARK   14  A    between atoms: C_24  and  O_31
REMARK   15  A    between atoms: C_25  and  O_30
REMARK   16  A    between atoms: C_26  and  C_28
REMARK   17  A    between atoms: C_28  and  O_29
REMARK   18  A    between atoms: C_33  and  O_34
REMARK                            x       y       z     vdW  Elec       q    Type
REMARK                         _______ _______ _______ _____ _____    ______ ____
ROOT
ATOM      1  C   UNL     1      -1.986  -0.629  -1.081  0.00  0.00    +0.029 C 
ATOM      2  C   UNL     1      -0.475  -0.321  -1.151  0.00  0.00    +0.047 C 
ATOM      3  C   UNL     1      -0.055   1.035  -0.481  0.00  0.00    +0.158 C 
ATOM      4  C   UNL     1      -1.132   2.146  -0.627  0.00  0.00    +0.174 C 
ATOM      5  C   UNL     1      -2.601   1.685  -0.683  0.00  0.00    +0.162 C 
ATOM      6  C   UNL     1      -2.835   0.500  -1.637  0.00  0.00    +0.086 C 
ENDROOT
BRANCH   4   7
ATOM      7  O   UNL     1      -0.980   3.050   0.491  0.00  0.00    -0.387 OA
ATOM      8  H   UNL     1      -0.661   2.555   1.265  0.00  0.00    +0.210 HD
ENDBRANCH   4   7
BRANCH   5   9
ATOM      9  O   UNL     1      -3.462   2.779  -1.030  0.00  0.00    -0.388 OA
ATOM     10  H   UNL     1      -3.892   3.082  -0.212  0.00  0.00    +0.210 HD
ENDBRANCH   5   9
BRANCH   6  11
ATOM     11  N   UNL     1      -2.531   0.840  -3.049  0.00  0.00    -0.302 NA
ATOM     12  H   UNL     1      -2.384   1.846  -3.103  0.00  0.00    +0.123 HD
BRANCH  11  13
ATOM     13  C   UNL     1      -3.574   0.456  -4.031  0.00  0.00    +0.109 C 
ATOM     14  C   UNL     1      -4.878   0.054  -3.397  0.00  0.00    -0.002 C 
ATOM     15  C   UNL     1      -5.947   0.872  -3.314  0.00  0.00    -0.016 C 
ATOM     16  C   UNL     1      -5.900   2.312  -3.734  0.00  0.00    +0.173 C 
ATOM     17  C   UNL     1      -4.558   2.790  -4.355  0.00  0.00    +0.177 C 
ATOM     18  C   UNL     1      -3.812   1.625  -5.032  0.00  0.00    +0.166 C 
BRANCH  16  19
ATOM     19  O   UNL     1      -6.214   3.102  -2.583  0.00  0.00    -0.385 OA
ATOM     20  H   UNL     1      -7.117   3.441  -2.693  0.00  0.00    +0.210 HD
ENDBRANCH  16  19
BRANCH  17  21
ATOM     21  O   UNL     1      -4.816   3.853  -5.290  0.00  0.00    -0.386 OA
ATOM     22  H   UNL     1      -5.632   4.306  -5.019  0.00  0.00    +0.210 HD
ENDBRANCH  17  21
BRANCH  18  23
ATOM     23  O   UNL     1      -2.560   2.065  -5.573  0.00  0.00    -0.387 OA
ATOM     24  H   UNL     1      -2.742   2.319  -6.500  0.00  0.00    +0.210 HD
ENDBRANCH  18  23
BRANCH  15  25
ATOM     25  C   UNL     1      -7.300   0.380  -2.851  0.00  0.00    +0.189 C 
BRANCH  25  26
ATOM     26  O   UNL     1      -8.306   1.287  -3.265  0.00  0.00    -0.391 OA
ATOM     27  H   UNL     1      -9.111   1.049  -2.760  0.00  0.00    +0.210 HD
ENDBRANCH  25  26
ENDBRANCH  15  25
ENDBRANCH  11  13
ENDBRANCH   6  11
BRANCH   3  28
ATOM     28  O   UNL     1       1.190   1.460  -1.119  0.00  0.00    -0.342 OA
BRANCH  28  29
ATOM     29  C   UNL     1       2.177   2.195  -0.336  0.00  0.00    +0.282 C 
ATOM     30  C   UNL     1       3.588   1.753  -0.856  0.00  0.00    +0.201 C 
ATOM     31  C   UNL     1       4.733   2.776  -0.648  0.00  0.00    +0.179 C 
ATOM     32  C   UNL     1       4.318   4.247  -0.602  0.00  0.00    +0.177 C 
ATOM     33  C   UNL     1       3.050   4.338   0.237  0.00  0.00    +0.178 C 
ATOM     34  O   UNL     1       2.054   3.610  -0.493  0.00  0.00    -0.341 OA
BRANCH  30  35
ATOM     35  O   UNL     1       3.986   0.524  -0.208  0.00  0.00    -0.384 OA
ATOM     36  H   UNL     1       3.352  -0.160  -0.496  0.00  0.00    +0.210 HD
ENDBRANCH  30  35
BRANCH  31  37
ATOM     37  O   UNL     1       5.738   2.606  -1.667  0.00  0.00    -0.386 OA
ATOM     38  H   UNL     1       6.497   3.183  -1.454  0.00  0.00    +0.210 HD
ENDBRANCH  31  37
BRANCH  32  39
ATOM     39  O   UNL     1       5.375   5.050  -0.056  0.00  0.00    -0.386 OA
ATOM     40  H   UNL     1       5.298   5.026   0.918  0.00  0.00    +0.210 HD
ENDBRANCH  32  39
BRANCH  33  41
ATOM     41  C   UNL     1       2.622   5.785   0.482  0.00  0.00    +0.190 C 
BRANCH  41  42
ATOM     42  O   UNL     1       3.123   6.678  -0.510  0.00  0.00    -0.392 OA
ATOM     43  H   UNL     1       3.989   6.998  -0.184  0.00  0.00    +0.210 HD
ENDBRANCH  41  42
ENDBRANCH  33  41
ENDBRANCH  28  29
ENDBRANCH   3  28
BRANCH   2  44
ATOM     44  C   UNL     1       0.252  -1.564  -0.600  0.00  0.00    +0.162 C 
BRANCH  44  45
ATOM     45  O   UNL     1       1.592  -1.271  -0.215  0.00  0.00    -0.395 OA
ATOM     46  H   UNL     1       2.190  -1.643  -0.880  0.00  0.00    +0.209 HD
ENDBRANCH  44  45
ENDBRANCH   2  44
TORSDOF 18
ENDMDL
MODEL 2
REMARK VINA RESULT:    -7.892      3.322      8.988
REMARK INTER + INTRA:         -16.191
REMARK INTER:                 -13.581
REMARK INTRA:                  -2.610
REMARK UNBOUND:                -2.532
REMARK  Name = 
REMARK  18 active torsions:
REMARK  status: ('A' for Active; 'I' for Inactive)
REMARK    1  A    between atoms: C_2  and  C_33
REMARK    2  A    between atoms: C_3  and  O_21
REMARK    3  A    between atoms: C_4  and  O_20
REMARK    4  A    between atoms: C_5  and  O_19
REMARK    5  A    between atoms: C_6  and  N_7
REMARK    6  A    between atoms: N_7  and  C_8
REMARK    7  A    between atoms: C_10  and  C_17
REMARK    8  A    between atoms: C_11  and  O_16
REMARK    9  A    between atoms: C_12  and  O_15
REMARK   10  A    between atoms: C_13  and  O_14
REMARK   11  A    between atoms: C_17  and  O_18
REMARK   12  A    between atoms: O_21  and  C_22
REMARK   13  A    between atoms: C_23  and  O_32
REMARK   14  A    between atoms: C_24  and  O_31
REMARK   15  A    between atoms: C_25  and  O_30
REMARK   16  A    between atoms: C_26  and  C_28
REMARK   17  A    between atoms: C_28  and  O_29
REMARK   18  A    between atoms: C_33  and  O_34
REMARK                            x       y       z     vdW  Elec       q    Type
REMARK                         _______ _______ _______ _____ _____    ______ ____
ROOT
ATOM      1  C   UNL     1      -5.289   5.835  -3.782  0.00  0.00    +0.029 C 
ATOM      2  C   UNL     1      -6.084   4.762  -4.558  0.00  0.00    +0.047 C 
ATOM      3  C   UNL     1      -7.386   4.268  -3.834  0.00  0.00    +0.158 C 
ATOM      4  C   UNL     1      -7.249   4.237  -2.286  0.00  0.00    +0.174 C 
ATOM      5  C   UNL     1      -6.312   5.282  -1.652  0.00  0.00    +0.162 C 
ATOM      6  C   UNL     1      -4.955   5.401  -2.366  0.00  0.00    +0.086 C 
ENDROOT
BRANCH   4   7
ATOM      7  O   UNL     1      -8.572   4.412  -1.729  0.00  0.00    -0.387 OA
ATOM      8  H   UNL     1      -9.238   4.180  -2.397  0.00  0.00    +0.210 HD
ENDBRANCH   4   7
BRANCH   5   9
ATOM      9  O   UNL     1      -6.117   5.005  -0.258  0.00  0.00    -0.388 OA
ATOM     10  H   UNL     1      -6.616   4.198  -0.047  0.00  0.00    +0.210 HD
ENDBRANCH   5   9
BRANCH   6  11
ATOM     11  N   UNL     1      -4.164   4.146  -2.296  0.00  0.00    -0.302 NA
ATOM     12  H   UNL     1      -4.081   3.885  -1.315  0.00  0.00    +0.123 HD
BRANCH  11  13
ATOM     13  C   UNL     1      -2.806   4.221  -2.887  0.00  0.00    +0.109 C 
ATOM     14  C   UNL     1      -1.836   5.027  -2.067  0.00  0.00    -0.002 C 
ATOM     15  C   UNL     1      -0.919   4.475  -1.247  0.00  0.00    -0.016 C 
ATOM     16  C   UNL     1      -0.859   3.000  -0.975  0.00  0.00    +0.173 C 
ATOM     17  C   UNL     1      -1.871   2.127  -1.765  0.00  0.00    +0.177 C 
ATOM     18  C   UNL     1      -2.246   2.785  -3.106  0.00  0.00    +0.166 C 
BRANCH  16  19
ATOM     19  O   UNL     1      -1.050   2.819   0.432  0.00  0.00    -0.385 OA
ATOM     20  H   UNL     1      -1.379   1.916   0.573  0.00  0.00    +0.210 HD
ENDBRANCH  16  19
BRANCH  17  21
ATOM     21  O   UNL     1      -1.315   0.816  -1.969  0.00  0.00    -0.386 OA
ATOM     22  H   UNL     1      -0.383   0.833  -1.691  0.00  0.00    +0.210 HD
ENDBRANCH  17  21
BRANCH  18  23
ATOM     23  O   UNL     1      -3.206   1.991  -3.815  0.00  0.00    -0.387 OA
ATOM     24  H   UNL     1      -3.995   1.946  -3.239  0.00  0.00    +0.210 HD
ENDBRANCH  18  23
BRANCH  15  25
ATOM     25  C   UNL     1       0.167   5.296  -0.588  0.00  0.00    +0.189 C 
BRANCH  25  26
ATOM     26  O   UNL     1      -0.307   5.820   0.639  0.00  0.00    -0.391 OA
ATOM     27  H   UNL     1       0.270   6.583   0.851  0.00  0.00    +0.210 HD
ENDBRANCH  25  26
ENDBRANCH  15  25
ENDBRANCH  11  13
ENDBRANCH   6  11
BRANCH   3  28
ATOM     28  O   UNL     1      -7.670   2.924  -4.337  0.00  0.00    -0.342 OA
BRANCH  28  29
ATOM     29  C   UNL     1      -6.578   2.117  -4.869  0.00  0.00    +0.282 C 
ATOM     30  C   UNL     1      -6.591   0.761  -4.084  0.00  0.00    +0.201 C 
ATOM     31  C   UNL     1      -5.978  -0.453  -4.825  0.00  0.00    +0.179 C 
ATOM     32  C   UNL     1      -6.042  -0.409  -6.352  0.00  0.00    +0.177 C 
ATOM     33  C   UNL     1      -5.688   1.008  -6.783  0.00  0.00    +0.178 C 
ATOM     34  O   UNL     1      -6.733   1.840  -6.263  0.00  0.00    -0.341 OA
BRANCH  30  35
ATOM     35  O   UNL     1      -5.876   0.910  -2.837  0.00  0.00    -0.384 OA
ATOM     36  H   UNL     1      -5.357   0.093  -2.715  0.00  0.00    +0.210 HD
ENDBRANCH  30  35
BRANCH  31  37
ATOM     37  O   UNL     1      -6.593  -1.673  -4.367  0.00  0.00    -0.386 OA
ATOM     38  H   UNL     1      -5.927  -2.194  -3.879  0.00  0.00    +0.210 HD
ENDBRANCH  31  37
BRANCH  32  39
ATOM     39  O   UNL     1      -5.146  -1.376  -6.920  0.00  0.00    -0.386 OA
ATOM     40  H   UNL     1      -5.615  -1.829  -7.648  0.00  0.00    +0.210 HD
ENDBRANCH  32  39
BRANCH  33  41
ATOM     41  C   UNL     1      -5.570   1.137  -8.302  0.00  0.00    +0.190 C 
BRANCH  41  42
ATOM     42  O   UNL     1      -4.254   0.854  -8.773  0.00  0.00    -0.392 OA
ATOM     43  H   UNL     1      -4.354   0.211  -9.504  0.00  0.00    +0.210 HD
ENDBRANCH  41  42
ENDBRANCH  33  41
ENDBRANCH  28  29
ENDBRANCH   3  28
BRANCH   2  44
ATOM     44  C   UNL     1      -6.308   5.322  -5.976  0.00  0.00    +0.162 C 
BRANCH  44  45
ATOM     45  O   UNL     1      -7.572   4.936  -6.508  0.00  0.00    -0.395 OA
ATOM     46  H   UNL     1      -7.420   4.310  -7.232  0.00  0.00    +0.209 HD
ENDBRANCH  44  45
ENDBRANCH   2  44
TORSDOF 18
ENDMDL
MODEL 3
REMARK VINA RESULT:    -7.828      5.277      8.338
REMARK INTER + INTRA:         -16.081
REMARK INTER:                 -13.500
REMARK INTRA:                  -2.581
REMARK UNBOUND:                -2.532
REMARK  Name = 
REMARK  18 active torsions:
REMARK  status: ('A' for Active; 'I' for Inactive)
REMARK    1  A    between atoms: C_2  and  C_33
REMARK    2  A    between atoms: C_3  and  O_21
REMARK    3  A    between atoms: C_4  and  O_20
REMARK    4  A    between atoms: C_5  and  O_19
REMARK    5  A    between atoms: C_6  and  N_7
REMARK    6  A    between atoms: N_7  and  C_8
REMARK    7  A    between atoms: C_10  and  C_17
REMARK    8  A    between atoms: C_11  and  O_16
REMARK    9  A    between atoms: C_12  and  O_15
REMARK   10  A    between atoms: C_13  and  O_14
REMARK   11  A    between atoms: C_17  and  O_18
REMARK   12  A    between atoms: O_21  and  C_22
REMARK   13  A    between atoms: C_23  and  O_32
REMARK   14  A    between atoms: C_24  and  O_31
REMARK   15  A    between atoms: C_25  and  O_30
REMARK   16  A    between atoms: C_26  and  C_28
REMARK   17  A    between atoms: C_28  and  O_29
REMARK   18  A    between atoms: C_33  and  O_34
REMARK                            x       y       z     vdW  Elec       q    Type
REMARK                         _______ _______ _______ _____ _____    ______ ____
ROOT
ATOM      1  C   UNL     1      -4.328   4.485  -6.101  0.00  0.00    +0.029 C 
ATOM      2  C   UNL     1      -4.385   5.498  -4.938  0.00  0.00    +0.047 C 
ATOM      3  C   UNL     1      -3.587   5.064  -3.658  0.00  0.00    +0.158 C 
ATOM      4  C   UNL     1      -3.607   3.529  -3.418  0.00  0.00    +0.174 C 
ATOM      5  C   UNL     1      -3.691   2.633  -4.668  0.00  0.00    +0.162 C 
ATOM      6  C   UNL     1      -4.756   3.090  -5.679  0.00  0.00    +0.086 C 
ENDROOT
BRANCH   4   7
ATOM      7  O   UNL     1      -2.405   3.186  -2.691  0.00  0.00    -0.387 OA
ATOM      8  H   UNL     1      -1.824   3.964  -2.641  0.00  0.00    +0.210 HD
ENDBRANCH   4   7
BRANCH   5   9
ATOM      9  O   UNL     1      -3.914   1.266  -4.296  0.00  0.00    -0.388 OA
ATOM     10  H   UNL     1      -3.128   0.759  -4.560  0.00  0.00    +0.210 HD
ENDBRANCH   5   9
BRANCH   6  11
ATOM     11  N   UNL     1      -6.131   3.028  -5.123  0.00  0.00    -0.302 NA
ATOM     12  H   UNL     1      -6.078   2.572  -4.214  0.00  0.00    +0.123 HD
BRANCH  11  13
ATOM     13  C   UNL     1      -7.120   2.310  -5.962  0.00  0.00    +0.109 C 
ATOM     14  C   UNL     1      -6.501   1.525  -7.085  0.00  0.00    -0.002 C 
ATOM     15  C   UNL     1      -6.301   0.193  -7.038  0.00  0.00    -0.016 C 
ATOM     16  C   UNL     1      -6.562  -0.623  -5.805  0.00  0.00    +0.173 C 
ATOM     17  C   UNL     1      -7.162   0.151  -4.599  0.00  0.00    +0.177 C 
ATOM     18  C   UNL     1      -7.982   1.367  -5.071  0.00  0.00    +0.166 C 
BRANCH  16  19
ATOM     19  O   UNL     1      -5.323  -1.232  -5.428  0.00  0.00    -0.385 OA
ATOM     20  H   UNL     1      -5.292  -1.266  -4.458  0.00  0.00    +0.210 HD
ENDBRANCH  16  19
BRANCH  17  21
ATOM     21  O   UNL     1      -7.967  -0.743  -3.811  0.00  0.00    -0.386 OA
ATOM     22  H   UNL     1      -7.427  -1.518  -3.579  0.00  0.00    +0.210 HD
ENDBRANCH  17  21
BRANCH  18  23
ATOM     23  O   UNL     1      -8.504   2.096  -3.953  0.00  0.00    -0.387 OA
ATOM     24  H   UNL     1      -8.035   2.954  -3.949  0.00  0.00    +0.210 HD
ENDBRANCH  18  23
BRANCH  15  25
ATOM     25  C   UNL     1      -5.859  -0.596  -8.250  0.00  0.00    +0.189 C 
BRANCH  25  26
ATOM     26  O   UNL     1      -6.682  -1.738  -8.405  0.00  0.00    -0.391 OA
ATOM     27  H   UNL     1      -6.617  -1.995  -9.348  0.00  0.00    +0.210 HD
ENDBRANCH  25  26
ENDBRANCH  15  25
ENDBRANCH  11  13
ENDBRANCH   6  11
BRANCH   3  28
ATOM     28  O   UNL     1      -4.194   5.755  -2.521  0.00  0.00    -0.342 OA
BRANCH  28  29
ATOM     29  C   UNL     1      -5.592   6.165  -2.600  0.00  0.00    +0.282 C 
ATOM     30  C   UNL     1      -6.412   5.151  -1.730  0.00  0.00    +0.201 C 
ATOM     31  C   UNL     1      -7.751   5.682  -1.161  0.00  0.00    +0.179 C 
ATOM     32  C   UNL     1      -7.829   7.190  -0.923  0.00  0.00    +0.177 C 
ATOM     33  C   UNL     1      -7.182   7.875  -2.121  0.00  0.00    +0.178 C 
ATOM     34  O   UNL     1      -5.804   7.483  -2.090  0.00  0.00    -0.341 OA
BRANCH  30  35
ATOM     35  O   UNL     1      -6.712   3.970  -2.506  0.00  0.00    -0.384 OA
ATOM     36  H   UNL     1      -5.898   3.745  -2.996  0.00  0.00    +0.210 HD
ENDBRANCH  30  35
BRANCH  31  37
ATOM     37  O   UNL     1      -8.070   5.000   0.068  0.00  0.00    -0.386 OA
ATOM     38  H   UNL     1      -8.983   4.659   0.006  0.00  0.00    +0.210 HD
ENDBRANCH  31  37
BRANCH  32  39
ATOM     39  O   UNL     1      -9.193   7.602  -0.749  0.00  0.00    -0.386 OA
ATOM     40  H   UNL     1      -9.411   7.526   0.201  0.00  0.00    +0.210 HD
ENDBRANCH  32  39
BRANCH  33  41
ATOM     41  C   UNL     1      -7.336   9.395  -2.070  0.00  0.00    +0.190 C 
BRANCH  41  42
ATOM     42  O   UNL     1      -7.698   9.864  -0.773  0.00  0.00    -0.392 OA
ATOM     43  H   UNL     1      -6.955  10.420  -0.462  0.00  0.00    +0.210 HD
ENDBRANCH  41  42
ENDBRANCH  33  41
ENDBRANCH  28  29
ENDBRANCH   3  28
BRANCH   2  44
ATOM     44  C   UNL     1      -3.971   6.862  -5.524  0.00  0.00    +0.162 C 
BRANCH  44  45
ATOM     45  O   UNL     1      -5.072   7.763  -5.605  0.00  0.00    -0.395 OA
ATOM     46  H   UNL     1      -5.243   8.117  -4.719  0.00  0.00    +0.209 HD
ENDBRANCH  44  45
ENDBRANCH   2  44
TORSDOF 18
ENDMDL
MODEL 4
REMARK VINA RESULT:    -7.681      2.993      4.662
REMARK INTER + INTRA:         -15.825
REMARK INTER:                 -13.731
REMARK INTRA:                  -2.094
REMARK UNBOUND:                -2.532
REMARK  Name = 
REMARK  18 active torsions:
REMARK  status: ('A' for Active; 'I' for Inactive)
REMARK    1  A    between atoms: C_2  and  C_33
REMARK    2  A    between atoms: C_3  and  O_21
REMARK    3  A    between atoms: C_4  and  O_20
REMARK    4  A    between atoms: C_5  and  O_19
REMARK    5  A    between atoms: C_6  and  N_7
REMARK    6  A    between atoms: N_7  and  C_8
REMARK    7  A    between atoms: C_10  and  C_17
REMARK    8  A    between atoms: C_11  and  O_16
REMARK    9  A    between atoms: C_12  and  O_15
REMARK   10  A    between atoms: C_13  and  O_14
REMARK   11  A    between atoms: C_17  and  O_18
REMARK   12  A    between atoms: O_21  and  C_22
REMARK   13  A    between atoms: C_23  and  O_32
REMARK   14  A    between atoms: C_24  and  O_31
REMARK   15  A    between atoms: C_25  and  O_30
REMARK   16  A    between atoms: C_26  and  C_28
REMARK   17  A    between atoms: C_28  and  O_29
REMARK   18  A    between atoms: C_33  and  O_34
REMARK                            x       y       z     vdW  Elec       q    Type
REMARK                         _______ _______ _______ _____ _____    ______ ____
ROOT
ATOM      1  C   UNL     1      -2.935   3.221  -4.405  0.00  0.00    +0.029 C 
ATOM      2  C   UNL     1      -1.619   4.026  -4.451  0.00  0.00    +0.047 C 
ATOM      3  C   UNL     1      -0.896   4.172  -3.065  0.00  0.00    +0.158 C 
ATOM      4  C   UNL     1      -1.885   4.273  -1.870  0.00  0.00    +0.174 C 
ATOM      5  C   UNL     1      -3.226   3.530  -2.015  0.00  0.00    +0.162 C 
ATOM      6  C   UNL     1      -3.910   3.761  -3.374  0.00  0.00    +0.086 C 
ENDROOT
BRANCH   4   7
ATOM      7  O   UNL     1      -1.206   3.764  -0.699  0.00  0.00    -0.387 OA
ATOM      8  H   UNL     1      -1.819   3.765   0.056  0.00  0.00    +0.210 HD
ENDBRANCH   4   7
BRANCH   5   9
ATOM      9  O   UNL     1      -4.116   3.880  -0.946  0.00  0.00    -0.388 OA
ATOM     10  H   UNL     1      -3.801   3.429  -0.144  0.00  0.00    +0.210 HD
ENDBRANCH   5   9
BRANCH   6  11
ATOM     11  N   UNL     1      -4.283   5.182  -3.588  0.00  0.00    -0.302 NA
ATOM     12  H   UNL     1      -4.067   5.692  -2.733  0.00  0.00    +0.123 HD
BRANCH  11  13
ATOM     13  C   UNL     1      -5.704   5.417  -3.940  0.00  0.00    +0.109 C 
ATOM     14  C   UNL     1      -6.622   4.304  -3.514  0.00  0.00    -0.002 C 
ATOM     15  C   UNL     1      -7.393   4.359  -2.409  0.00  0.00    -0.016 C 
ATOM     16  C   UNL     1      -7.317   5.488  -1.423  0.00  0.00    +0.173 C 
ATOM     17  C   UNL     1      -6.348   6.644  -1.795  0.00  0.00    +0.177 C 
ATOM     18  C   UNL     1      -6.185   6.763  -3.322  0.00  0.00    +0.166 C 
BRANCH  16  19
ATOM     19  O   UNL     1      -6.944   4.926  -0.160  0.00  0.00    -0.385 OA
ATOM     20  H   UNL     1      -6.419   5.589   0.316  0.00  0.00    +0.210 HD
ENDBRANCH  16  19
BRANCH  17  21
ATOM     21  O   UNL     1      -6.832   7.875  -1.229  0.00  0.00    -0.386 OA
ATOM     22  H   UNL     1      -6.506   8.611  -1.774  0.00  0.00    +0.210 HD
ENDBRANCH  17  21
BRANCH  18  23
ATOM     23  O   UNL     1      -5.264   7.809  -3.658  0.00  0.00    -0.387 OA
ATOM     24  H   UNL     1      -5.772   8.453  -4.190  0.00  0.00    +0.210 HD
ENDBRANCH  18  23
BRANCH  15  25
ATOM     25  C   UNL     1      -8.445   3.315  -2.111  0.00  0.00    +0.189 C 
BRANCH  25  26
ATOM     26  O   UNL     1      -9.308   3.781  -1.090  0.00  0.00    -0.391 OA
ATOM     27  H   UNL     1      -9.439   4.737  -1.258  0.00  0.00    +0.210 HD
ENDBRANCH  25  26
ENDBRANCH  15  25
ENDBRANCH  11  13
ENDBRANCH   6  11
BRANCH   3  28
ATOM     28  O   UNL     1      -0.074   5.379  -3.137  0.00  0.00    -0.342 OA
BRANCH  28  29
ATOM     29  C   UNL     1       1.286   5.347  -2.611  0.00  0.00    +0.282 C 
ATOM     30  C   UNL     1       1.711   6.835  -2.362  0.00  0.00    +0.201 C 
ATOM     31  C   UNL     1       2.802   7.052  -1.285  0.00  0.00    +0.179 C 
ATOM     32  C   UNL     1       2.870   6.002  -0.176  0.00  0.00    +0.177 C 
ATOM     33  C   UNL     1       2.702   4.636  -0.829  0.00  0.00    +0.178 C 
ATOM     34  O   UNL     1       1.378   4.632  -1.376  0.00  0.00    -0.341 OA
BRANCH  30  35
ATOM     35  O   UNL     1       2.197   7.418  -3.591  0.00  0.00    -0.384 OA
ATOM     36  H   UNL     1       2.011   6.771  -4.298  0.00  0.00    +0.210 HD
ENDBRANCH  30  35
BRANCH  31  37
ATOM     37  O   UNL     1       2.652   8.354  -0.685  0.00  0.00    -0.386 OA
ATOM     38  H   UNL     1       1.700   8.526  -0.549  0.00  0.00    +0.210 HD
ENDBRANCH  31  37
BRANCH  32  39
ATOM     39  O   UNL     1       4.112   6.101   0.536  0.00  0.00    -0.386 OA
ATOM     40  H   UNL     1       4.637   6.817   0.127  0.00  0.00    +0.210 HD
ENDBRANCH  32  39
BRANCH  33  41
ATOM     41  C   UNL     1       2.904   3.491   0.164  0.00  0.00    +0.190 C 
BRANCH  41  42
ATOM     42  O   UNL     1       1.734   2.693   0.322  0.00  0.00    -0.392 OA
ATOM     43  H   UNL     1       1.696   2.100  -0.455  0.00  0.00    +0.210 HD
ENDBRANCH  41  42
ENDBRANCH  33  41
ENDBRANCH  28  29
ENDBRANCH   3  28
BRANCH   2  44
ATOM     44  C   UNL     1      -0.758   3.394  -5.563  0.00  0.00    +0.162 C 
BRANCH  44  45
ATOM     45  O   UNL     1      -1.487   3.238  -6.777  0.00  0.00    -0.395 OA
ATOM     46  H   UNL     1      -1.132   2.471  -7.250  0.00  0.00    +0.209 HD
ENDBRANCH  44  45
ENDBRANCH   2  44
TORSDOF 18
ENDMDL
MODEL 5
REMARK VINA RESULT:    -7.647      4.920      8.641
REMARK INTER + INTRA:         -15.766
REMARK INTER:                 -13.353
REMARK INTRA:                  -2.413
REMARK UNBOUND:                -2.532
REMARK  Name = 
REMARK  18 active torsions:
REMARK  status: ('A' for Active; 'I' for Inactive)
REMARK    1  A    between atoms: C_2  and  C_33
REMARK    2  A    between atoms: C_3  and  O_21
REMARK    3  A    between atoms: C_4  and  O_20
REMARK    4  A    between atoms: C_5  and  O_19
REMARK    5  A    between atoms: C_6  and  N_7
REMARK    6  A    between atoms: N_7  and  C_8
REMARK    7  A    between atoms: C_10  and  C_17
REMARK    8  A    between atoms: C_11  and  O_16
REMARK    9  A    between atoms: C_12  and  O_15
REMARK   10  A    between atoms: C_13  and  O_14
REMARK   11  A    between atoms: C_17  and  O_18
REMARK   12  A    between atoms: O_21  and  C_22
REMARK   13  A    between atoms: C_23  and  O_32
REMARK   14  A    between atoms: C_24  and  O_31
REMARK   15  A    between atoms: C_25  and  O_30
REMARK   16  A    between atoms: C_26  and  C_28
REMARK   17  A    between atoms: C_28  and  O_29
REMARK   18  A    between atoms: C_33  and  O_34
REMARK                            x       y       z     vdW  Elec       q    Type
REMARK                         _______ _______ _______ _____ _____    ______ ____
ROOT
ATOM      1  C   UNL     1      -5.817   5.698  -6.132  0.00  0.00    +0.029 C 
ATOM      2  C   UNL     1      -5.419   4.265  -6.547  0.00  0.00    +0.047 C 
ATOM      3  C   UNL     1      -6.566   3.203  -6.397  0.00  0.00    +0.158 C 
ATOM      4  C   UNL     1      -7.503   3.484  -5.190  0.00  0.00    +0.174 C 
ATOM      5  C   UNL     1      -7.703   4.960  -4.796  0.00  0.00    +0.162 C 
ATOM      6  C   UNL     1      -6.390   5.759  -4.728  0.00  0.00    +0.086 C 
ENDROOT
BRANCH   4   7
ATOM      7  O   UNL     1      -8.796   2.916  -5.500  0.00  0.00    -0.387 OA
ATOM      8  H   UNL     1      -9.137   2.443  -4.722  0.00  0.00    +0.210 HD
ENDBRANCH   4   7
BRANCH   5   9
ATOM      9  O   UNL     1      -8.410   5.060  -3.552  0.00  0.00    -0.388 OA
ATOM     10  H   UNL     1      -8.846   5.929  -3.532  0.00  0.00    +0.210 HD
ENDBRANCH   5   9
BRANCH   6  11
ATOM     11  N   UNL     1      -5.469   5.249  -3.682  0.00  0.00    -0.302 NA
ATOM     12  H   UNL     1      -5.953   4.512  -3.173  0.00  0.00    +0.123 HD
BRANCH  11  13
ATOM     13  C   UNL     1      -4.989   6.264  -2.712  0.00  0.00    +0.109 C 
ATOM     14  C   UNL     1      -5.613   7.619  -2.902  0.00  0.00    -0.002 C 
ATOM     15  C   UNL     1      -6.627   8.083  -2.143  0.00  0.00    -0.016 C 
ATOM     16  C   UNL     1      -7.320   7.239  -1.113  0.00  0.00    +0.173 C 
ATOM     17  C   UNL     1      -6.741   5.812  -0.910  0.00  0.00    +0.177 C 
ATOM     18  C   UNL     1      -5.241   5.765  -1.259  0.00  0.00    +0.166 C 
BRANCH  16  19
ATOM     19  O   UNL     1      -8.699   7.158  -1.487  0.00  0.00    -0.385 OA
ATOM     20  H   UNL     1      -8.757   7.318  -2.443  0.00  0.00    +0.210 HD
ENDBRANCH  16  19
BRANCH  17  21
ATOM     21  O   UNL     1      -6.971   5.391   0.446  0.00  0.00    -0.386 OA
ATOM     22  H   UNL     1      -6.147   5.007   0.791  0.00  0.00    +0.210 HD
ENDBRANCH  17  21
BRANCH  18  23
ATOM     23  O   UNL     1      -4.721   4.439  -1.102  0.00  0.00    -0.387 OA
ATOM     24  H   UNL     1      -5.368   3.844  -1.531  0.00  0.00    +0.210 HD
ENDBRANCH  18  23
BRANCH  15  25
ATOM     25  C   UNL     1      -7.102   9.516  -2.227  0.00  0.00    +0.189 C 
BRANCH  25  26
ATOM     26  O   UNL     1      -7.666   9.907  -0.988  0.00  0.00    -0.391 OA
ATOM     27  H   UNL     1      -6.959   9.796  -0.319  0.00  0.00    +0.210 HD
ENDBRANCH  25  26
ENDBRANCH  15  25
ENDBRANCH  11  13
ENDBRANCH   6  11
BRANCH   3  28
ATOM     28  O   UNL     1      -5.923   1.900  -6.237  0.00  0.00    -0.342 OA
BRANCH  28  29
ATOM     29  C   UNL     1      -5.741   1.355  -4.896  0.00  0.00    +0.282 C 
ATOM     30  C   UNL     1      -6.161  -0.153  -4.958  0.00  0.00    +0.201 C 
ATOM     31  C   UNL     1      -5.514  -1.077  -3.897  0.00  0.00    +0.179 C 
ATOM     32  C   UNL     1      -4.140  -0.647  -3.381  0.00  0.00    +0.177 C 
ATOM     33  C   UNL     1      -4.188   0.859  -3.157  0.00  0.00    +0.178 C 
ATOM     34  O   UNL     1      -4.383   1.434  -4.454  0.00  0.00    -0.341 OA
BRANCH  30  35
ATOM     35  O   UNL     1      -7.594  -0.269  -4.813  0.00  0.00    -0.384 OA
ATOM     36  H   UNL     1      -7.761  -0.495  -3.879  0.00  0.00    +0.210 HD
ENDBRANCH  30  35
BRANCH  31  37
ATOM     37  O   UNL     1      -5.420  -2.423  -4.404  0.00  0.00    -0.386 OA
ATOM     38  H   UNL     1      -4.977  -2.978  -3.734  0.00  0.00    +0.210 HD
ENDBRANCH  31  37
BRANCH  32  39
ATOM     39  O   UNL     1      -3.813  -1.353  -2.175  0.00  0.00    -0.386 OA
ATOM     40  H   UNL     1      -2.927  -1.749  -2.289  0.00  0.00    +0.210 HD
ENDBRANCH  32  39
BRANCH  33  41
ATOM     41  C   UNL     1      -2.914   1.385  -2.494  0.00  0.00    +0.190 C 
BRANCH  41  42
ATOM     42  O   UNL     1      -3.186   2.174  -1.338  0.00  0.00    -0.392 OA
ATOM     43  H   UNL     1      -3.262   3.100  -1.647  0.00  0.00    +0.210 HD
ENDBRANCH  41  42
ENDBRANCH  33  41
ENDBRANCH  28  29
ENDBRANCH   3  28
BRANCH   2  44
ATOM     44  C   UNL     1      -4.818   4.369  -7.962  0.00  0.00    +0.162 C 
BRANCH  44  45
ATOM     45  O   UNL     1      -4.345   5.683  -8.245  0.00  0.00    -0.395 OA
ATOM     46  H   UNL     1      -4.201   6.143  -7.404  0.00  0.00    +0.209 HD
ENDBRANCH  44  45
ENDBRANCH   2  44
TORSDOF 18
ENDMDL
MODEL 6
REMARK VINA RESULT:    -7.645      2.438      8.856
REMARK INTER + INTRA:         -15.764
REMARK INTER:                 -13.923
REMARK INTRA:                  -1.841
REMARK UNBOUND:                -2.532
REMARK  Name = 
REMARK  18 active torsions:
REMARK  status: ('A' for Active; 'I' for Inactive)
REMARK    1  A    between atoms: C_2  and  C_33
REMARK    2  A    between atoms: C_3  and  O_21
REMARK    3  A    between atoms: C_4  and  O_20
REMARK    4  A    between atoms: C_5  and  O_19
REMARK    5  A    between atoms: C_6  and  N_7
REMARK    6  A    between atoms: N_7  and  C_8
REMARK    7  A    between atoms: C_10  and  C_17
REMARK    8  A    between atoms: C_11  and  O_16
REMARK    9  A    between atoms: C_12  and  O_15
REMARK   10  A    between atoms: C_13  and  O_14
REMARK   11  A    between atoms: C_17  and  O_18
REMARK   12  A    between atoms: O_21  and  C_22
REMARK   13  A    between atoms: C_23  and  O_32
REMARK   14  A    between atoms: C_24  and  O_31
REMARK   15  A    between atoms: C_25  and  O_30
REMARK   16  A    between atoms: C_26  and  C_28
REMARK   17  A    between atoms: C_28  and  O_29
REMARK   18  A    between atoms: C_33  and  O_34
REMARK                            x       y       z     vdW  Elec       q    Type
REMARK                         _______ _______ _______ _____ _____    ______ ____
ROOT
ATOM      1  C   UNL     1      -1.227   4.923  -3.887  0.00  0.00    +0.029 C 
ATOM      2  C   UNL     1      -1.854   3.584  -4.332  0.00  0.00    +0.047 C 
ATOM      3  C   UNL     1      -2.719   2.873  -3.232  0.00  0.00    +0.158 C 
ATOM      4  C   UNL     1      -2.175   3.093  -1.793  0.00  0.00    +0.174 C 
ATOM      5  C   UNL     1      -1.445   4.422  -1.523  0.00  0.00    +0.162 C 
ATOM      6  C   UNL     1      -0.419   4.789  -2.608  0.00  0.00    +0.086 C 
ENDROOT
BRANCH   4   7
ATOM      7  O   UNL     1      -3.295   2.994  -0.884  0.00  0.00    -0.387 OA
ATOM      8  H   UNL     1      -3.977   3.639  -1.140  0.00  0.00    +0.210 HD
ENDBRANCH   4   7
BRANCH   5   9
ATOM      9  O   UNL     1      -0.817   4.401  -0.233  0.00  0.00    -0.388 OA
ATOM     10  H   UNL     1      -1.461   4.741   0.411  0.00  0.00    +0.210 HD
ENDBRANCH   5   9
BRANCH   6  11
ATOM     11  N   UNL     1       0.688   3.805  -2.700  0.00  0.00    -0.302 NA
ATOM     12  H   UNL     1       0.594   3.158  -1.919  0.00  0.00    +0.123 HD
BRANCH  11  13
ATOM     13  C   UNL     1       2.053   4.386  -2.678  0.00  0.00    +0.109 C 
ATOM     14  C   UNL     1       2.070   5.877  -2.483  0.00  0.00    -0.002 C 
ATOM     15  C   UNL     1       2.327   6.468  -1.299  0.00  0.00    -0.016 C 
ATOM     16  C   UNL     1       2.497   5.692  -0.025  0.00  0.00    +0.173 C 
ATOM     17  C   UNL     1       2.443   4.146  -0.166  0.00  0.00    +0.177 C 
ATOM     18  C   UNL     1       2.901   3.698  -1.567  0.00  0.00    +0.166 C 
BRANCH  16  19
ATOM     19  O   UNL     1       1.484   6.136   0.882  0.00  0.00    -0.385 OA
ATOM     20  H   UNL     1       0.696   5.587   0.740  0.00  0.00    +0.210 HD
ENDBRANCH  16  19
BRANCH  17  21
ATOM     21  O   UNL     1       3.253   3.544   0.860  0.00  0.00    -0.386 OA
ATOM     22  H   UNL     1       2.729   3.504   1.679  0.00  0.00    +0.210 HD
ENDBRANCH  17  21
BRANCH  18  23
ATOM     23  O   UNL     1       2.816   2.274  -1.701  0.00  0.00    -0.387 OA
ATOM     24  H   UNL     1       3.711   1.975  -1.960  0.00  0.00    +0.210 HD
ENDBRANCH  18  23
BRANCH  15  25
ATOM     25  C   UNL     1       2.530   7.962  -1.174  0.00  0.00    +0.189 C 
BRANCH  25  26
ATOM     26  O   UNL     1       3.313   8.431  -2.257  0.00  0.00    -0.391 OA
ATOM     27  H   UNL     1       2.687   8.840  -2.889  0.00  0.00    +0.210 HD
ENDBRANCH  25  26
ENDBRANCH  15  25
ENDBRANCH  11  13
ENDBRANCH   6  11
BRANCH   3  28
ATOM     28  O   UNL     1      -2.727   1.447  -3.551  0.00  0.00    -0.342 OA
BRANCH  28  29
ATOM     29  C   UNL     1      -3.997   0.786  -3.833  0.00  0.00    +0.282 C 
ATOM     30  C   UNL     1      -3.852  -0.699  -3.353  0.00  0.00    +0.201 C 
ATOM     31  C   UNL     1      -5.172  -1.417  -2.978  0.00  0.00    +0.179 C 
ATOM     32  C   UNL     1      -6.306  -0.519  -2.481  0.00  0.00    +0.177 C 
ATOM     33  C   UNL     1      -6.335   0.716  -3.372  0.00  0.00    +0.178 C 
ATOM     34  O   UNL     1      -5.091   1.387  -3.137  0.00  0.00    -0.341 OA
BRANCH  30  35
ATOM     35  O   UNL     1      -3.212  -1.486  -4.382  0.00  0.00    -0.384 OA
ATOM     36  H   UNL     1      -2.448  -1.924  -3.961  0.00  0.00    +0.210 HD
ENDBRANCH  30  35
BRANCH  31  37
ATOM     37  O   UNL     1      -4.917  -2.435  -1.989  0.00  0.00    -0.386 OA
ATOM     38  H   UNL     1      -4.993  -3.309  -2.417  0.00  0.00    +0.210 HD
ENDBRANCH  31  37
BRANCH  32  39
ATOM     39  O   UNL     1      -7.556  -1.225  -2.512  0.00  0.00    -0.386 OA
ATOM     40  H   UNL     1      -8.113  -0.820  -3.205  0.00  0.00    +0.210 HD
ENDBRANCH  32  39
BRANCH  33  41
ATOM     41  C   UNL     1      -7.530   1.620  -3.068  0.00  0.00    +0.190 C 
BRANCH  41  42
ATOM     42  O   UNL     1      -8.718   1.196  -3.731  0.00  0.00    -0.392 OA
ATOM     43  H   UNL     1      -8.724   0.218  -3.690  0.00  0.00    +0.210 HD
ENDBRANCH  41  42
ENDBRANCH  33  41
ENDBRANCH  28  29
ENDBRANCH   3  28
BRANCH   2  44
ATOM     44  C   UNL     1      -2.597   3.866  -5.653  0.00  0.00    +0.162 C 
BRANCH  44  45
ATOM     45  O   UNL     1      -2.841   5.258  -5.840  0.00  0.00    -0.395 OA
ATOM     46  H   UNL     1      -2.117   5.627  -6.368  0.00  0.00    +0.209 HD
ENDBRANCH  44  45
ENDBRANCH   2  44
TORSDOF 18
ENDMDL
MODEL 7
REMARK VINA RESULT:    -7.620      3.163      8.826
REMARK INTER + INTRA:         -15.720
REMARK INTER:                 -12.745
REMARK INTRA:                  -2.974
REMARK UNBOUND:                -2.532
REMARK  Name = 
REMARK  18 active torsions:
REMARK  status: ('A' for Active; 'I' for Inactive)
REMARK    1  A    between atoms: C_2  and  C_33
REMARK    2  A    between atoms: C_3  and  O_21
REMARK    3  A    between atoms: C_4  and  O_20
REMARK    4  A    between atoms: C_5  and  O_19
REMARK    5  A    between atoms: C_6  and  N_7
REMARK    6  A    between atoms: N_7  and  C_8
REMARK    7  A    between atoms: C_10  and  C_17
REMARK    8  A    between atoms: C_11  and  O_16
REMARK    9  A    between atoms: C_12  and  O_15
REMARK   10  A    between atoms: C_13  and  O_14
REMARK   11  A    between atoms: C_17  and  O_18
REMARK   12  A    between atoms: O_21  and  C_22
REMARK   13  A    between atoms: C_23  and  O_32
REMARK   14  A    between atoms: C_24  and  O_31
REMARK   15  A    between atoms: C_25  and  O_30
REMARK   16  A    between atoms: C_26  and  C_28
REMARK   17  A    between atoms: C_28  and  O_29
REMARK   18  A    between atoms: C_33  and  O_34
REMARK                            x       y       z     vdW  Elec       q    Type
REMARK                         _______ _______ _______ _____ _____    ______ ____
ROOT
ATOM      1  C   UNL     1      -4.190   5.742  -5.337  0.00  0.00    +0.029 C 
ATOM      2  C   UNL     1      -4.876   4.434  -5.787  0.00  0.00    +0.047 C 
ATOM      3  C   UNL     1      -6.306   4.208  -5.181  0.00  0.00    +0.158 C 
ATOM      4  C   UNL     1      -6.450   4.761  -3.736  0.00  0.00    +0.174 C 
ATOM      5  C   UNL     1      -5.599   5.994  -3.377  0.00  0.00    +0.162 C 
ATOM      6  C   UNL     1      -4.132   5.877  -3.826  0.00  0.00    +0.086 C 
ENDROOT
BRANCH   4   7
ATOM      7  O   UNL     1      -7.842   5.093  -3.533  0.00  0.00    -0.387 OA
ATOM      8  H   UNL     1      -7.918   5.751  -2.821  0.00  0.00    +0.210 HD
ENDBRANCH   4   7
BRANCH   5   9
ATOM      9  O   UNL     1      -5.668   6.264  -1.970  0.00  0.00    -0.388 OA
ATOM     10  H   UNL     1      -5.952   5.445  -1.529  0.00  0.00    +0.210 HD
ENDBRANCH   5   9
BRANCH   6  11
ATOM     11  N   UNL     1      -3.419   4.764  -3.151  0.00  0.00    -0.302 NA
ATOM     12  H   UNL     1      -3.507   4.901  -2.146  0.00  0.00    +0.123 HD
BRANCH  11  13
ATOM     13  C   UNL     1      -1.981   4.635  -3.493  0.00  0.00    +0.109 C 
ATOM     14  C   UNL     1      -1.070   5.365  -2.545  0.00  0.00    -0.002 C 
ATOM     15  C   UNL     1      -0.388   4.757  -1.553  0.00  0.00    -0.016 C 
ATOM     16  C   UNL     1      -0.570   3.305  -1.217  0.00  0.00    +0.173 C 
ATOM     17  C   UNL     1      -1.538   2.515  -2.140  0.00  0.00    +0.177 C 
ATOM     18  C   UNL     1      -1.586   3.130  -3.552  0.00  0.00    +0.166 C 
BRANCH  16  19
ATOM     19  O   UNL     1      -1.024   3.236   0.139  0.00  0.00    -0.385 OA
ATOM     20  H   UNL     1      -1.332   2.330   0.304  0.00  0.00    +0.210 HD
ENDBRANCH  16  19
BRANCH  17  21
ATOM     21  O   UNL     1      -1.132   1.136  -2.190  0.00  0.00    -0.386 OA
ATOM     22  H   UNL     1      -1.831   0.627  -2.634  0.00  0.00    +0.210 HD
ENDBRANCH  17  21
BRANCH  18  23
ATOM     23  O   UNL     1      -2.505   2.418  -4.389  0.00  0.00    -0.387 OA
ATOM     24  H   UNL     1      -3.300   2.983  -4.456  0.00  0.00    +0.210 HD
ENDBRANCH  18  23
BRANCH  15  25
ATOM     25  C   UNL     1       0.666   5.477  -0.743  0.00  0.00    +0.189 C 
BRANCH  25  26
ATOM     26  O   UNL     1       0.119   5.891   0.496  0.00  0.00    -0.391 OA
ATOM     27  H   UNL     1      -0.556   5.222   0.733  0.00  0.00    +0.210 HD
ENDBRANCH  25  26
ENDBRANCH  15  25
ENDBRANCH  11  13
ENDBRANCH   6  11
BRANCH   3  28
ATOM     28  O   UNL     1      -6.550   2.766  -5.191  0.00  0.00    -0.342 OA
BRANCH  28  29
ATOM     29  C   UNL     1      -6.383   2.007  -3.956  0.00  0.00    +0.282 C 
ATOM     30  C   UNL     1      -7.748   1.291  -3.676  0.00  0.00    +0.201 C 
ATOM     31  C   UNL     1      -7.668  -0.001  -2.825  0.00  0.00    +0.179 C 
ATOM     32  C   UNL     1      -6.355  -0.780  -2.909  0.00  0.00    +0.177 C 
ATOM     33  C   UNL     1      -5.219   0.235  -2.867  0.00  0.00    +0.178 C 
ATOM     34  O   UNL     1      -5.358   1.016  -4.060  0.00  0.00    -0.341 OA
BRANCH  30  35
ATOM     35  O   UNL     1      -8.647   2.197  -2.999  0.00  0.00    -0.384 OA
ATOM     36  H   UNL     1      -9.368   1.650  -2.632  0.00  0.00    +0.210 HD
ENDBRANCH  30  35
BRANCH  31  37
ATOM     37  O   UNL     1      -8.755  -0.884  -3.164  0.00  0.00    -0.386 OA
ATOM     38  H   UNL     1      -9.112  -0.619  -4.033  0.00  0.00    +0.210 HD
ENDBRANCH  31  37
BRANCH  32  39
ATOM     39  O   UNL     1      -6.262  -1.725  -1.833  0.00  0.00    -0.386 OA
ATOM     40  H   UNL     1      -5.834  -2.533  -2.178  0.00  0.00    +0.210 HD
ENDBRANCH  32  39
BRANCH  33  41
ATOM     41  C   UNL     1      -3.847  -0.437  -2.790  0.00  0.00    +0.190 C 
BRANCH  41  42
ATOM     42  O   UNL     1      -3.107  -0.306  -4.001  0.00  0.00    -0.392 OA
ATOM     43  H   UNL     1      -2.939  -1.215  -4.323  0.00  0.00    +0.210 HD
ENDBRANCH  41  42
ENDBRANCH  33  41
ENDBRANCH  28  29
ENDBRANCH   3  28
BRANCH   2  44
ATOM     44  C   UNL     1      -4.819   4.418  -7.328  0.00  0.00    +0.162 C 
BRANCH  44  45
ATOM     45  O   UNL     1      -5.802   3.551  -7.888  0.00  0.00    -0.395 OA
ATOM     46  H   UNL     1      -6.677   3.871  -7.623  0.00  0.00    +0.209 HD
ENDBRANCH  44  45
ENDBRANCH   2  44
TORSDOF 18
ENDMDL
MODEL 8
REMARK VINA RESULT:    -7.354      3.851      7.790
REMARK INTER + INTRA:         -15.259
REMARK INTER:                 -12.518
REMARK INTRA:                  -2.741
REMARK UNBOUND:                -2.532
REMARK  Name = 
REMARK  18 active torsions:
REMARK  status: ('A' for Active; 'I' for Inactive)
REMARK    1  A    between atoms: C_2  and  C_33
REMARK    2  A    between atoms: C_3  and  O_21
REMARK    3  A    between atoms: C_4  and  O_20
REMARK    4  A    between atoms: C_5  and  O_19
REMARK    5  A    between atoms: C_6  and  N_7
REMARK    6  A    between atoms: N_7  and  C_8
REMARK    7  A    between atoms: C_10  and  C_17
REMARK    8  A    between atoms: C_11  and  O_16
REMARK    9  A    between atoms: C_12  and  O_15
REMARK   10  A    between atoms: C_13  and  O_14
REMARK   11  A    between atoms: C_17  and  O_18
REMARK   12  A    between atoms: O_21  and  C_22
REMARK   13  A    between atoms: C_23  and  O_32
REMARK   14  A    between atoms: C_24  and  O_31
REMARK   15  A    between atoms: C_25  and  O_30
REMARK   16  A    between atoms: C_26  and  C_28
REMARK   17  A    between atoms: C_28  and  O_29
REMARK   18  A    between atoms: C_33  and  O_34
REMARK                            x       y       z     vdW  Elec       q    Type
REMARK                         _______ _______ _______ _____ _____    ______ ____
ROOT
ATOM      1  C   UNL     1      -2.824   4.608  -1.898  0.00  0.00    +0.029 C 
ATOM      2  C   UNL     1      -2.510   3.191  -2.421  0.00  0.00    +0.047 C 
ATOM      3  C   UNL     1      -1.999   3.143  -3.905  0.00  0.00    +0.158 C 
ATOM      4  C   UNL     1      -2.645   4.233  -4.806  0.00  0.00    +0.174 C 
ATOM      5  C   UNL     1      -3.038   5.555  -4.122  0.00  0.00    +0.162 C 
ATOM      6  C   UNL     1      -3.792   5.358  -2.796  0.00  0.00    +0.086 C 
ENDROOT
BRANCH   4   7
ATOM      7  O   UNL     1      -1.709   4.529  -5.869  0.00  0.00    -0.387 OA
ATOM      8  H   UNL     1      -0.973   5.056  -5.513  0.00  0.00    +0.210 HD
ENDBRANCH   4   7
BRANCH   5   9
ATOM      9  O   UNL     1      -3.806   6.376  -5.013  0.00  0.00    -0.388 OA
ATOM     10  H   UNL     1      -4.418   5.793  -5.494  0.00  0.00    +0.210 HD
ENDBRANCH   5   9
BRANCH   6  11
ATOM     11  N   UNL     1      -5.094   4.670  -2.980  0.00  0.00    -0.302 NA
ATOM     12  H   UNL     1      -5.242   4.547  -3.980  0.00  0.00    +0.123 HD
BRANCH  11  13
ATOM     13  C   UNL     1      -6.267   5.372  -2.406  0.00  0.00    +0.109 C 
ATOM     14  C   UNL     1      -5.999   6.812  -2.065  0.00  0.00    -0.002 C 
ATOM     15  C   UNL     1      -6.379   7.843  -2.846  0.00  0.00    -0.016 C 
ATOM     16  C   UNL     1      -6.996   7.649  -4.201  0.00  0.00    +0.173 C 
ATOM     17  C   UNL     1      -7.253   6.176  -4.620  0.00  0.00    +0.177 C 
ATOM     18  C   UNL     1      -7.472   5.277  -3.388  0.00  0.00    +0.166 C 
BRANCH  16  19
ATOM     19  O   UNL     1      -6.139   8.286  -5.154  0.00  0.00    -0.385 OA
ATOM     20  H   UNL     1      -5.229   8.230  -4.820  0.00  0.00    +0.210 HD
ENDBRANCH  16  19
BRANCH  17  21
ATOM     21  O   UNL     1      -8.383   6.121  -5.508  0.00  0.00    -0.386 OA
ATOM     22  H   UNL     1      -9.184   5.977  -4.975  0.00  0.00    +0.210 HD
ENDBRANCH  17  21
BRANCH  18  23
ATOM     23  O   UNL     1      -7.675   3.913  -3.779  0.00  0.00    -0.387 OA
ATOM     24  H   UNL     1      -8.601   3.702  -3.547  0.00  0.00    +0.210 HD
ENDBRANCH  18  23
BRANCH  15  25
ATOM     25  C   UNL     1      -6.271   9.280  -2.388  0.00  0.00    +0.189 C 
BRANCH  25  26
ATOM     26  O   UNL     1      -7.231  10.072  -3.064  0.00  0.00    -0.391 OA
ATOM     27  H   UNL     1      -7.287  10.916  -2.569  0.00  0.00    +0.210 HD
ENDBRANCH  25  26
ENDBRANCH  15  25
ENDBRANCH  11  13
ENDBRANCH   6  11
BRANCH   3  28
ATOM     28  O   UNL     1      -2.317   1.814  -4.423  0.00  0.00    -0.342 OA
BRANCH  28  29
ATOM     29  C   UNL     1      -3.520   1.134  -3.953  0.00  0.00    +0.282 C 
ATOM     30  C   UNL     1      -4.592   1.274  -5.087  0.00  0.00    +0.201 C 
ATOM     31  C   UNL     1      -5.685   0.177  -5.119  0.00  0.00    +0.179 C 
ATOM     32  C   UNL     1      -5.283  -1.188  -4.558  0.00  0.00    +0.177 C 
ATOM     33  C   UNL     1      -4.485  -0.941  -3.284  0.00  0.00    +0.178 C 
ATOM     34  O   UNL     1      -3.298  -0.256  -3.702  0.00  0.00    -0.341 OA
BRANCH  30  35
ATOM     35  O   UNL     1      -5.265   2.548  -4.971  0.00  0.00    -0.384 OA
ATOM     36  H   UNL     1      -6.217   2.352  -4.884  0.00  0.00    +0.210 HD
ENDBRANCH  30  35
BRANCH  31  37
ATOM     37  O   UNL     1      -6.171   0.003  -6.465  0.00  0.00    -0.386 OA
ATOM     38  H   UNL     1      -5.519  -0.524  -6.965  0.00  0.00    +0.210 HD
ENDBRANCH  31  37
BRANCH  32  39
ATOM     39  O   UNL     1      -6.446  -1.991  -4.309  0.00  0.00    -0.386 OA
ATOM     40  H   UNL     1      -7.221  -1.519  -4.671  0.00  0.00    +0.210 HD
ENDBRANCH  32  39
BRANCH  33  41
ATOM     41  C   UNL     1      -4.156  -2.240  -2.548  0.00  0.00    +0.190 C 
BRANCH  41  42
ATOM     42  O   UNL     1      -3.356  -3.123  -3.330  0.00  0.00    -0.392 OA
ATOM     43  H   UNL     1      -3.568  -2.933  -4.266  0.00  0.00    +0.210 HD
ENDBRANCH  41  42
ENDBRANCH  33  41
ENDBRANCH  28  29
ENDBRANCH   3  28
BRANCH   2  44
ATOM     44  C   UNL     1      -1.561   2.544  -1.392  0.00  0.00    +0.162 C 
BRANCH  44  45
ATOM     45  O   UNL     1      -0.621   1.669  -2.011  0.00  0.00    -0.395 OA
ATOM     46  H   UNL     1      -0.076   2.189  -2.620  0.00  0.00    +0.209 HD
ENDBRANCH  44  45
ENDBRANCH   2  44
TORSDOF 18
ENDMDL
MODEL 9
REMARK VINA RESULT:    -7.331      1.860      2.299
REMARK INTER + INTRA:         -15.220
REMARK INTER:                 -12.900
REMARK INTRA:                  -2.320
REMARK UNBOUND:                -2.532
REMARK  Name = 
REMARK  18 active torsions:
REMARK  status: ('A' for Active; 'I' for Inactive)
REMARK    1  A    between atoms: C_2  and  C_33
REMARK    2  A    between atoms: C_3  and  O_21
REMARK    3  A    between atoms: C_4  and  O_20
REMARK    4  A    between atoms: C_5  and  O_19
REMARK    5  A    between atoms: C_6  and  N_7
REMARK    6  A    between atoms: N_7  and  C_8
REMARK    7  A    between atoms: C_10  and  C_17
REMARK    8  A    between atoms: C_11  and  O_16
REMARK    9  A    between atoms: C_12  and  O_15
REMARK   10  A    between atoms: C_13  and  O_14
REMARK   11  A    between atoms: C_17  and  O_18
REMARK   12  A    between atoms: O_21  and  C_22
REMARK   13  A    between atoms: C_23  and  O_32
REMARK   14  A    between atoms: C_24  and  O_31
REMARK   15  A    between atoms: C_25  and  O_30
REMARK   16  A    between atoms: C_26  and  C_28
REMARK   17  A    between atoms: C_28  and  O_29
REMARK   18  A    between atoms: C_33  and  O_34
REMARK                            x       y       z     vdW  Elec       q    Type
REMARK                         _______ _______ _______ _____ _____    ______ ____
ROOT
ATOM      1  C   UNL     1      -3.333   1.317  -2.036  0.00  0.00    +0.029 C 
ATOM      2  C   UNL     1      -1.814   1.286  -1.766  0.00  0.00    +0.047 C 
ATOM      3  C   UNL     1      -1.210   2.654  -1.288  0.00  0.00    +0.158 C 
ATOM      4  C   UNL     1      -1.910   3.886  -1.926  0.00  0.00    +0.174 C 
ATOM      5  C   UNL     1      -3.403   3.731  -2.274  0.00  0.00    +0.162 C 
ATOM      6  C   UNL     1      -3.729   2.417  -3.005  0.00  0.00    +0.086 C 
ENDROOT
BRANCH   4   7
ATOM      7  O   UNL     1      -1.769   4.993  -1.007  0.00  0.00    -0.387 OA
ATOM      8  H   UNL     1      -1.665   5.819  -1.509  0.00  0.00    +0.210 HD
ENDBRANCH   4   7
BRANCH   5   9
ATOM      9  O   UNL     1      -3.862   4.853  -3.042  0.00  0.00    -0.388 OA
ATOM     10  H   UNL     1      -3.346   5.629  -2.763  0.00  0.00    +0.210 HD
ENDBRANCH   5   9
BRANCH   6  11
ATOM     11  N   UNL     1      -3.059   2.321  -4.326  0.00  0.00    -0.302 NA
ATOM     12  H   UNL     1      -2.617   3.218  -4.517  0.00  0.00    +0.123 HD
BRANCH  11  13
ATOM     13  C   UNL     1      -3.948   1.975  -5.462  0.00  0.00    +0.109 C 
ATOM     14  C   UNL     1      -5.405   1.925  -5.092  0.00  0.00    -0.002 C 
ATOM     15  C   UNL     1      -6.272   2.925  -5.352  0.00  0.00    -0.016 C 
ATOM     16  C   UNL     1      -5.840   4.244  -5.925  0.00  0.00    +0.173 C 
ATOM     17  C   UNL     1      -4.333   4.362  -6.283  0.00  0.00    +0.177 C 
ATOM     18  C   UNL     1      -3.733   2.985  -6.627  0.00  0.00    +0.166 C 
BRANCH  16  19
ATOM     19  O   UNL     1      -6.199   5.256  -4.979  0.00  0.00    -0.385 OA
ATOM     20  H   UNL     1      -6.652   4.822  -4.238  0.00  0.00    +0.210 HD
ENDBRANCH  16  19
BRANCH  17  21
ATOM     21  O   UNL     1      -4.173   5.284  -7.375  0.00  0.00    -0.386 OA
ATOM     22  H   UNL     1      -3.850   6.129  -7.016  0.00  0.00    +0.210 HD
ENDBRANCH  17  21
BRANCH  18  23
ATOM     23  O   UNL     1      -2.335   3.097  -6.923  0.00  0.00    -0.387 OA
ATOM     24  H   UNL     1      -2.154   4.054  -7.006  0.00  0.00    +0.210 HD
ENDBRANCH  18  23
BRANCH  15  25
ATOM     25  C   UNL     1      -7.762   2.769  -5.147  0.00  0.00    +0.189 C 
BRANCH  25  26
ATOM     26  O   UNL     1      -8.105   3.137  -3.823  0.00  0.00    -0.391 OA
ATOM     27  H   UNL     1      -8.422   4.062  -3.871  0.00  0.00    +0.210 HD
ENDBRANCH  25  26
ENDBRANCH  15  25
ENDBRANCH  11  13
ENDBRANCH   6  11
BRANCH   3  28
ATOM     28  O   UNL     1       0.207   2.644  -1.647  0.00  0.00    -0.342 OA
BRANCH  28  29
ATOM     29  C   UNL     1       1.147   3.437  -0.862  0.00  0.00    +0.282 C 
ATOM     30  C   UNL     1       2.238   2.448  -0.326  0.00  0.00    +0.201 C 
ATOM     31  C   UNL     1       3.618   3.076  -0.008  0.00  0.00    +0.179 C 
ATOM     32  C   UNL     1       3.990   4.322  -0.811  0.00  0.00    +0.177 C 
ATOM     33  C   UNL     1       2.748   5.203  -0.888  0.00  0.00    +0.178 C 
ATOM     34  O   UNL     1       1.790   4.449  -1.640  0.00  0.00    -0.341 OA
BRANCH  30  35
ATOM     35  O   UNL     1       1.768   1.807   0.880  0.00  0.00    -0.384 OA
ATOM     36  H   UNL     1       2.562   1.553   1.388  0.00  0.00    +0.210 HD
ENDBRANCH  30  35
BRANCH  31  37
ATOM     37  O   UNL     1       4.658   2.090  -0.169  0.00  0.00    -0.386 OA
ATOM     38  H   UNL     1       5.031   2.177  -1.067  0.00  0.00    +0.210 HD
ENDBRANCH  31  37
BRANCH  32  39
ATOM     39  O   UNL     1       5.090   5.008  -0.194  0.00  0.00    -0.386 OA
ATOM     40  H   UNL     1       4.730   5.771   0.300  0.00  0.00    +0.210 HD
ENDBRANCH  32  39
BRANCH  33  41
ATOM     41  C   UNL     1       3.039   6.555  -1.540  0.00  0.00    +0.190 C 
BRANCH  41  42
ATOM     42  O   UNL     1       3.935   6.448  -2.644  0.00  0.00    -0.392 OA
ATOM     43  H   UNL     1       3.866   5.526  -2.967  0.00  0.00    +0.210 HD
ENDBRANCH  41  42
ENDBRANCH  33  41
ENDBRANCH  28  29
ENDBRANCH   3  28
BRANCH   2  44
ATOM     44  C   UNL     1      -1.563   0.102  -0.810  0.00  0.00    +0.162 C 
BRANCH  44  45
ATOM     45  O   UNL     1      -0.904   0.512   0.385  0.00  0.00    -0.395 OA
ATOM     46  H   UNL     1       0.011   0.194   0.353  0.00  0.00    +0.209 HD
ENDBRANCH  44  45
ENDBRANCH   2  44
TORSDOF 18
ENDMDL
