MODEL 1
REMARK VINA RESULT:     0.000      0.000      0.000
REMARK INTER + INTRA:          -3.093
REMARK INTER:                   0.000
REMARK INTRA:                  -3.093
REMARK UNBOUND:                -3.093
REMARK  Name = 
REMARK  18 active torsions:
REMARK  status: ('A' for Active; 'I' for Inactive)
REMARK    1  A    between atoms: C_2  and  C_33
REMARK    2  A    between atoms: C_3  and  O_21
REMARK    3  A    between atoms: C_4  and  O_20
REMARK    4  A    between atoms: C_5  and  O_19
REMARK    5  A    between atoms: C_6  and  N_7
REMARK    6  A    between atoms: N_7  and  C_8
REMARK    7  A    between atoms: C_10  and  C_17
REMARK    8  A    between atoms: C_11  and  O_16
REMARK    9  A    between atoms: C_12  and  O_15
REMARK   10  A    between atoms: C_13  and  O_14
REMARK   11  A    between atoms: C_17  and  O_18
REMARK   12  A    between atoms: O_21  and  C_22
REMARK   13  A    between atoms: C_23  and  O_32
REMARK   14  A    between atoms: C_24  and  O_31
REMARK   15  A    between atoms: C_25  and  O_30
REMARK   16  A    between atoms: C_26  and  C_28
REMARK   17  A    between atoms: C_28  and  O_29
REMARK   18  A    between atoms: C_33  and  O_34
REMARK                            x       y       z     vdW  Elec       q    Type
REMARK                         _______ _______ _______ _____ _____    ______ ____
ROOT
ATOM      1  C   UNL     1      98.402 128.016  55.099  0.00  0.00    +0.029 C 
ATOM      2  C   UNL     1      98.921 128.705  53.819  0.00  0.00    +0.047 C 
ATOM      3  C   UNL     1      99.850 127.808  52.928  0.00  0.00    +0.158 C 
ATOM      4  C   UNL     1     100.732 126.832  53.756  0.00  0.00    +0.174 C 
ATOM      5  C   UNL     1     100.144 126.326  55.087  0.00  0.00    +0.162 C 
ATOM      6  C   UNL     1      99.524 127.442  55.946  0.00  0.00    +0.086 C 
ENDROOT
BRANCH   4   7
ATOM      7  O   UNL     1     101.019 125.687  52.921  0.00  0.00    -0.387 OA
ATOM      8  H   UNL     1     100.644 124.888  53.327  0.00  0.00    +0.210 HD
ENDBRANCH   4   7
BRANCH   5   9
ATOM      9  O   UNL     1     101.137 125.615  55.840  0.00  0.00    -0.388 OA
ATOM     10  H   UNL     1     100.924 125.726  56.783  0.00  0.00    +0.210 HD
ENDBRANCH   5   9
BRANCH   6  11
ATOM     11  N   UNL     1     100.525 128.450  56.377  0.00  0.00    -0.302 NA
ATOM     12  H   UNL     1     101.400 127.962  56.559  0.00  0.00    +0.123 HD
BRANCH  11  13
ATOM     13  C   UNL     1     100.155 129.234  57.580  0.00  0.00    +0.109 C 
ATOM     14  C   UNL     1     100.874 128.797  58.827  0.00  0.00    -0.002 C 
ATOM     15  C   UNL     1     101.944 129.444  59.333  0.00  0.00    -0.016 C 
ATOM     16  C   UNL     1     102.603 130.595  58.628  0.00  0.00    +0.173 C 
ATOM     17  C   UNL     1     101.923 131.056  57.310  0.00  0.00    +0.177 C 
ATOM     18  C   UNL     1     100.414 130.748  57.324  0.00  0.00    +0.166 C 
BRANCH  16  19
ATOM     19  O   UNL     1     103.959 130.217  58.373  0.00  0.00    -0.385 OA
ATOM     20  H   UNL     1     104.534 130.913  58.731  0.00  0.00    +0.210 HD
ENDBRANCH  16  19
BRANCH  17  21
ATOM     21  O   UNL     1     102.162 132.461  57.115  0.00  0.00    -0.386 OA
ATOM     22  H   UNL     1     102.707 132.571  56.317  0.00  0.00    +0.210 HD
ENDBRANCH  17  21
BRANCH  18  23
ATOM     23  O   UNL     1      99.799 131.145  56.092  0.00  0.00    -0.387 OA
ATOM     24  H   UNL     1      98.876 130.826  56.137  0.00  0.00    +0.210 HD
ENDBRANCH  18  23
BRANCH  15  25
ATOM     25  C   UNL     1     102.524 129.101  60.686  0.00  0.00    +0.189 C 
BRANCH  25  26
ATOM     26  O   UNL     1     103.644 128.250  60.526  0.00  0.00    -0.391 OA
ATOM     27  H   UNL     1     104.381 128.675  61.010  0.00  0.00    +0.210 HD
ENDBRANCH  25  26
ENDBRANCH  15  25
ENDBRANCH  11  13
ENDBRANCH   6  11
BRANCH   3  28
ATOM     28  O   UNL     1     100.698 128.710  52.151  0.00  0.00    -0.342 OA
BRANCH  28  29
ATOM     29  C   UNL     1     101.489 129.720  52.847  0.00  0.00    +0.282 C 
ATOM     30  C   UNL     1     102.940 129.642  52.262  0.00  0.00    +0.201 C 
ATOM     31  C   UNL     1     103.778 130.940  52.364  0.00  0.00    +0.179 C 
ATOM     32  C   UNL     1     102.988 132.249  52.379  0.00  0.00    +0.177 C 
ATOM     33  C   UNL     1     101.782 132.044  53.287  0.00  0.00    +0.178 C 
ATOM     34  O   UNL     1     100.985 131.042  52.645  0.00  0.00    -0.341 OA
BRANCH  30  35
ATOM     35  O   UNL     1     103.682 128.597  52.930  0.00  0.00    -0.384 OA
ATOM     36  H   UNL     1     104.404 129.038  53.418  0.00  0.00    +0.210 HD
ENDBRANCH  30  35
BRANCH  31  37
ATOM     37  O   UNL     1     104.743 130.991  51.294  0.00  0.00    -0.386 OA
ATOM     38  H   UNL     1     104.452 131.659  50.644  0.00  0.00    +0.210 HD
ENDBRANCH  31  37
BRANCH  32  39
ATOM     39  O   UNL     1     103.817 133.331  52.832  0.00  0.00    -0.386 OA
ATOM     40  H   UNL     1     103.299 134.157  52.759  0.00  0.00    +0.210 HD
ENDBRANCH  32  39
BRANCH  33  41
ATOM     41  C   UNL     1     100.996 133.338  53.502  0.00  0.00    +0.190 C 
BRANCH  41  42
ATOM     42  O   UNL     1     100.787 133.626  54.883  0.00  0.00    -0.392 OA
ATOM     43  H   UNL     1     100.918 134.590  54.987  0.00  0.00    +0.210 HD
ENDBRANCH  41  42
ENDBRANCH  33  41
ENDBRANCH  28  29
ENDBRANCH   3  28
BRANCH   2  44
ATOM     44  C   UNL     1      97.683 129.271  53.094  0.00  0.00    +0.162 C 
BRANCH  44  45
ATOM     45  O   UNL     1      98.040 130.230  52.103  0.00  0.00    -0.395 OA
ATOM     46  H   UNL     1      97.270 130.794  51.932  0.00  0.00    +0.209 HD
ENDBRANCH  44  45
ENDBRANCH   2  44
TORSDOF 18
ENDMDL
MODEL 2
REMARK VINA RESULT:     0.001     13.979     18.377
REMARK INTER + INTRA:          -3.092
REMARK INTER:                   0.000
REMARK INTRA:                  -3.092
REMARK UNBOUND:                -3.093
REMARK  Name = 
REMARK  18 active torsions:
REMARK  status: ('A' for Active; 'I' for Inactive)
REMARK    1  A    between atoms: C_2  and  C_33
REMARK    2  A    between atoms: C_3  and  O_21
REMARK    3  A    between atoms: C_4  and  O_20
REMARK    4  A    between atoms: C_5  and  O_19
REMARK    5  A    between atoms: C_6  and  N_7
REMARK    6  A    between atoms: N_7  and  C_8
REMARK    7  A    between atoms: C_10  and  C_17
REMARK    8  A    between atoms: C_11  and  O_16
REMARK    9  A    between atoms: C_12  and  O_15
REMARK   10  A    between atoms: C_13  and  O_14
REMARK   11  A    between atoms: C_17  and  O_18
REMARK   12  A    between atoms: O_21  and  C_22
REMARK   13  A    between atoms: C_23  and  O_32
REMARK   14  A    between atoms: C_24  and  O_31
REMARK   15  A    between atoms: C_25  and  O_30
REMARK   16  A    between atoms: C_26  and  C_28
REMARK   17  A    between atoms: C_28  and  O_29
REMARK   18  A    between atoms: C_33  and  O_34
REMARK                            x       y       z     vdW  Elec       q    Type
REMARK                         _______ _______ _______ _____ _____    ______ ____
ROOT
ATOM      1  C   UNL     1      99.675 136.084  73.504  0.00  0.00    +0.029 C 
ATOM      2  C   UNL     1      98.317 135.424  73.824  0.00  0.00    +0.047 C 
ATOM      3  C   UNL     1      98.361 133.858  73.919  0.00  0.00    +0.158 C 
ATOM      4  C   UNL     1      99.381 133.216  72.938  0.00  0.00    +0.174 C 
ATOM      5  C   UNL     1     100.632 134.047  72.597  0.00  0.00    +0.162 C 
ATOM      6  C   UNL     1     100.319 135.513  72.253  0.00  0.00    +0.086 C 
ENDROOT
BRANCH   4   7
ATOM      7  O   UNL     1      99.810 131.961  73.514  0.00  0.00    -0.387 OA
ATOM      8  H   UNL     1     100.359 131.481  72.871  0.00  0.00    +0.210 HD
ENDBRANCH   4   7
BRANCH   5   9
ATOM      9  O   UNL     1     101.371 133.434  71.530  0.00  0.00    -0.388 OA
ATOM     10  H   UNL     1     100.763 132.839  71.059  0.00  0.00    +0.210 HD
ENDBRANCH   5   9
BRANCH   6  11
ATOM     11  N   UNL     1      99.480 135.644  71.035  0.00  0.00    -0.302 NA
ATOM     12  H   UNL     1      99.765 134.917  70.382  0.00  0.00    +0.123 HD
BRANCH  11  13
ATOM     13  C   UNL     1      99.559 136.958  70.352  0.00  0.00    +0.109 C 
ATOM     14  C   UNL     1     100.396 136.938  69.103  0.00  0.00    -0.002 C 
ATOM     15  C   UNL     1      99.875 136.872  67.861  0.00  0.00    -0.016 C 
ATOM     16  C   UNL     1      98.407 136.683  67.606  0.00  0.00    +0.173 C 
ATOM     17  C   UNL     1      97.503 136.652  68.869  0.00  0.00    +0.177 C 
ATOM     18  C   UNL     1      98.125 137.467  70.019  0.00  0.00    +0.166 C 
BRANCH  16  19
ATOM     19  O   UNL     1      98.257 135.467  66.868  0.00  0.00    -0.385 OA
ATOM     20  H   UNL     1      99.096 134.980  66.922  0.00  0.00    +0.210 HD
ENDBRANCH  16  19
BRANCH  17  21
ATOM     21  O   UNL     1      96.195 137.147  68.532  0.00  0.00    -0.386 OA
ATOM     22  H   UNL     1      95.673 136.411  68.170  0.00  0.00    +0.210 HD
ENDBRANCH  17  21
BRANCH  18  23
ATOM     23  O   UNL     1      97.303 137.406  71.192  0.00  0.00    -0.387 OA
ATOM     24  H   UNL     1      96.586 136.774  70.984  0.00  0.00    +0.210 HD
ENDBRANCH  18  23
BRANCH  15  25
ATOM     25  C   UNL     1     100.725 137.050  66.623  0.00  0.00    +0.189 C 
BRANCH  25  26
ATOM     26  O   UNL     1     101.068 135.783  66.091  0.00  0.00    -0.391 OA
ATOM     27  H   UNL     1     101.403 135.949  65.185  0.00  0.00    +0.210 HD
ENDBRANCH  25  26
ENDBRANCH  15  25
ENDBRANCH  11  13
ENDBRANCH   6  11
BRANCH   3  28
ATOM     28  O   UNL     1      97.013 133.373  73.626  0.00  0.00    -0.342 OA
BRANCH  28  29
ATOM     29  C   UNL     1      96.362 133.786  72.387  0.00  0.00    +0.282 C 
ATOM     30  C   UNL     1      95.770 132.491  71.732  0.00  0.00    +0.201 C 
ATOM     31  C   UNL     1      94.561 132.706  70.789  0.00  0.00    +0.179 C 
ATOM     32  C   UNL     1      93.689 133.927  71.083  0.00  0.00    +0.177 C 
ATOM     33  C   UNL     1      94.622 135.088  71.406  0.00  0.00    +0.178 C 
ATOM     34  O   UNL     1      95.297 134.713  72.613  0.00  0.00    -0.341 OA
BRANCH  30  35
ATOM     35  O   UNL     1      96.795 131.815  70.971  0.00  0.00    -0.384 OA
ATOM     36  H   UNL     1      97.639 131.984  71.430  0.00  0.00    +0.210 HD
ENDBRANCH  30  35
BRANCH  31  37
ATOM     37  O   UNL     1      93.727 131.530  70.779  0.00  0.00    -0.386 OA
ATOM     38  H   UNL     1      92.817 131.797  70.547  0.00  0.00    +0.210 HD
ENDBRANCH  31  37
BRANCH  32  39
ATOM     39  O   UNL     1      92.843 134.222  69.962  0.00  0.00    -0.386 OA
ATOM     40  H   UNL     1      93.179 135.037  69.538  0.00  0.00    +0.210 HD
ENDBRANCH  32  39
BRANCH  33  41
ATOM     41  C   UNL     1      93.868 136.407  71.569  0.00  0.00    +0.190 C 
BRANCH  41  42
ATOM     42  O   UNL     1      94.404 137.447  70.754  0.00  0.00    -0.392 OA
ATOM     43  H   UNL     1      95.299 137.154  70.485  0.00  0.00    +0.210 HD
ENDBRANCH  41  42
ENDBRANCH  33  41
ENDBRANCH  28  29
ENDBRANCH   3  28
BRANCH   2  44
ATOM     44  C   UNL     1      97.771 136.131  75.081  0.00  0.00    +0.162 C 
BRANCH  44  45
ATOM     45  O   UNL     1      96.382 135.876  75.274  0.00  0.00    -0.395 OA
ATOM     46  H   UNL     1      96.277 135.355  76.084  0.00  0.00    +0.209 HD
ENDBRANCH  44  45
ENDBRANCH   2  44
TORSDOF 18
ENDMDL
MODEL 3
REMARK VINA RESULT:     0.001     18.891     21.496
REMARK INTER + INTRA:          -3.092
REMARK INTER:                   0.000
REMARK INTRA:                  -3.092
REMARK UNBOUND:                -3.093
REMARK  Name = 
REMARK  18 active torsions:
REMARK  status: ('A' for Active; 'I' for Inactive)
REMARK    1  A    between atoms: C_2  and  C_33
REMARK    2  A    between atoms: C_3  and  O_21
REMARK    3  A    between atoms: C_4  and  O_20
REMARK    4  A    between atoms: C_5  and  O_19
REMARK    5  A    between atoms: C_6  and  N_7
REMARK    6  A    between atoms: N_7  and  C_8
REMARK    7  A    between atoms: C_10  and  C_17
REMARK    8  A    between atoms: C_11  and  O_16
REMARK    9  A    between atoms: C_12  and  O_15
REMARK   10  A    between atoms: C_13  and  O_14
REMARK   11  A    between atoms: C_17  and  O_18
REMARK   12  A    between atoms: O_21  and  C_22
REMARK   13  A    between atoms: C_23  and  O_32
REMARK   14  A    between atoms: C_24  and  O_31
REMARK   15  A    between atoms: C_25  and  O_30
REMARK   16  A    between atoms: C_26  and  C_28
REMARK   17  A    between atoms: C_28  and  O_29
REMARK   18  A    between atoms: C_33  and  O_34
REMARK                            x       y       z     vdW  Elec       q    Type
REMARK                         _______ _______ _______ _____ _____    ______ ____
ROOT
ATOM      1  C   UNL     1      88.398 139.321  73.328  0.00  0.00    +0.029 C 
ATOM      2  C   UNL     1      87.795 138.396  72.250  0.00  0.00    +0.047 C 
ATOM      3  C   UNL     1      88.099 136.871  72.457  0.00  0.00    +0.158 C 
ATOM      4  C   UNL     1      89.497 136.607  73.082  0.00  0.00    +0.174 C 
ATOM      5  C   UNL     1      90.043 137.684  74.040  0.00  0.00    +0.162 C 
ATOM      6  C   UNL     1      89.893 139.117  73.499  0.00  0.00    +0.086 C 
ENDROOT
BRANCH   4   7
ATOM      7  O   UNL     1      89.425 135.354  73.800  0.00  0.00    -0.387 OA
ATOM      8  H   UNL     1      89.381 135.530  74.755  0.00  0.00    +0.210 HD
ENDBRANCH   4   7
BRANCH   5   9
ATOM      9  O   UNL     1      91.413 137.419  74.371  0.00  0.00    -0.388 OA
ATOM     10  H   UNL     1      91.552 137.706  75.289  0.00  0.00    +0.210 HD
ENDBRANCH   5   9
BRANCH   6  11
ATOM     11  N   UNL     1      90.674 139.339  72.256  0.00  0.00    -0.302 NA
ATOM     12  H   UNL     1      91.539 138.808  72.333  0.00  0.00    +0.123 HD
BRANCH  11  13
ATOM     13  C   UNL     1      91.006 140.754  71.963  0.00  0.00    +0.109 C 
ATOM     14  C   UNL     1      92.434 141.113  72.267  0.00  0.00    -0.002 C 
ATOM     15  C   UNL     1      93.395 141.201  71.325  0.00  0.00    -0.016 C 
ATOM     16  C   UNL     1      93.161 140.825  69.891  0.00  0.00    +0.173 C 
ATOM     17  C   UNL     1      91.709 140.403  69.533  0.00  0.00    +0.177 C 
ATOM     18  C   UNL     1      90.687 141.073  70.472  0.00  0.00    +0.166 C 
BRANCH  16  19
ATOM     19  O   UNL     1      94.069 139.765  69.575  0.00  0.00    -0.385 OA
ATOM     20  H   UNL     1      93.961 139.072  70.246  0.00  0.00    +0.210 HD
ENDBRANCH  16  19
BRANCH  17  21
ATOM     21  O   UNL     1      91.441 140.731  68.158  0.00  0.00    -0.386 OA
ATOM     22  H   UNL     1      90.592 141.203  68.117  0.00  0.00    +0.210 HD
ENDBRANCH  17  21
BRANCH  18  23
ATOM     23  O   UNL     1      89.353 140.653  70.159  0.00  0.00    -0.387 OA
ATOM     24  H   UNL     1      89.155 141.025  69.276  0.00  0.00    +0.210 HD
ENDBRANCH  18  23
BRANCH  15  25
ATOM     25  C   UNL     1      94.770 141.752  71.629  0.00  0.00    +0.189 C 
BRANCH  25  26
ATOM     26  O   UNL     1      95.675 140.685  71.852  0.00  0.00    -0.391 OA
ATOM     27  H   UNL     1      95.168 139.990  72.319  0.00  0.00    +0.210 HD
ENDBRANCH  25  26
ENDBRANCH  15  25
ENDBRANCH  11  13
ENDBRANCH   6  11
BRANCH   3  28
ATOM     28  O   UNL     1      88.013 136.236  71.143  0.00  0.00    -0.342 OA
BRANCH  28  29
ATOM     29  C   UNL     1      88.810 136.765  70.042  0.00  0.00    +0.282 C 
ATOM     30  C   UNL     1      89.508 135.540  69.358  0.00  0.00    +0.201 C 
ATOM     31  C   UNL     1      89.891 135.728  67.869  0.00  0.00    +0.179 C 
ATOM     32  C   UNL     1      89.029 136.709  67.073  0.00  0.00    +0.177 C 
ATOM     33  C   UNL     1      88.783 137.924  67.959  0.00  0.00    +0.178 C 
ATOM     34  O   UNL     1      88.013 137.441  69.067  0.00  0.00    -0.341 OA
BRANCH  30  35
ATOM     35  O   UNL     1      90.716 135.201  70.073  0.00  0.00    -0.384 OA
ATOM     36  H   UNL     1      90.568 135.453  71.004  0.00  0.00    +0.210 HD
ENDBRANCH  30  35
BRANCH  31  37
ATOM     37  O   UNL     1      89.891 134.455  67.193  0.00  0.00    -0.386 OA
ATOM     38  H   UNL     1      90.602 133.902  67.572  0.00  0.00    +0.210 HD
ENDBRANCH  31  37
BRANCH  32  39
ATOM     39  O   UNL     1      89.681 137.070  65.846  0.00  0.00    -0.386 OA
ATOM     40  H   UNL     1      89.579 138.034  65.723  0.00  0.00    +0.210 HD
ENDBRANCH  32  39
BRANCH  33  41
ATOM     41  C   UNL     1      88.057 139.045  67.214  0.00  0.00    +0.190 C 
BRANCH  41  42
ATOM     42  O   UNL     1      88.733 140.296  67.318  0.00  0.00    -0.392 OA
ATOM     43  H   UNL     1      88.037 140.982  67.374  0.00  0.00    +0.210 HD
ENDBRANCH  41  42
ENDBRANCH  33  41
ENDBRANCH  28  29
ENDBRANCH   3  28
BRANCH   2  44
ATOM     44  C   UNL     1      86.296 138.748  72.160  0.00  0.00    +0.162 C 
BRANCH  44  45
ATOM     45  O   UNL     1      85.699 138.235  70.972  0.00  0.00    -0.395 OA
ATOM     46  H   UNL     1      84.885 138.732  70.801  0.00  0.00    +0.209 HD
ENDBRANCH  44  45
ENDBRANCH   2  44
TORSDOF 18
ENDMDL
MODEL 4
REMARK VINA RESULT:     0.001      8.674     11.932
REMARK INTER + INTRA:          -3.092
REMARK INTER:                   0.000
REMARK INTRA:                  -3.092
REMARK UNBOUND:                -3.093
REMARK  Name = 
REMARK  18 active torsions:
REMARK  status: ('A' for Active; 'I' for Inactive)
REMARK    1  A    between atoms: C_2  and  C_33
REMARK    2  A    between atoms: C_3  and  O_21
REMARK    3  A    between atoms: C_4  and  O_20
REMARK    4  A    between atoms: C_5  and  O_19
REMARK    5  A    between atoms: C_6  and  N_7
REMARK    6  A    between atoms: N_7  and  C_8
REMARK    7  A    between atoms: C_10  and  C_17
REMARK    8  A    between atoms: C_11  and  O_16
REMARK    9  A    between atoms: C_12  and  O_15
REMARK   10  A    between atoms: C_13  and  O_14
REMARK   11  A    between atoms: C_17  and  O_18
REMARK   12  A    between atoms: O_21  and  C_22
REMARK   13  A    between atoms: C_23  and  O_32
REMARK   14  A    between atoms: C_24  and  O_31
REMARK   15  A    between atoms: C_25  and  O_30
REMARK   16  A    between atoms: C_26  and  C_28
REMARK   17  A    between atoms: C_28  and  O_29
REMARK   18  A    between atoms: C_33  and  O_34
REMARK                            x       y       z     vdW  Elec       q    Type
REMARK                         _______ _______ _______ _____ _____    ______ ____
ROOT
ATOM      1  C   UNL     1      96.855 137.033  58.603  0.00  0.00    +0.029 C 
ATOM      2  C   UNL     1      95.418 137.595  58.643  0.00  0.00    +0.047 C 
ATOM      3  C   UNL     1      94.313 136.593  58.155  0.00  0.00    +0.158 C 
ATOM      4  C   UNL     1      94.802 135.655  57.016  0.00  0.00    +0.174 C 
ATOM      5  C   UNL     1      96.296 135.282  57.018  0.00  0.00    +0.162 C 
ATOM      6  C   UNL     1      97.228 136.487  57.236  0.00  0.00    +0.086 C 
ENDROOT
BRANCH   4   7
ATOM      7  O   UNL     1      94.028 134.436  57.094  0.00  0.00    -0.387 OA
ATOM      8  H   UNL     1      93.097 134.630  56.892  0.00  0.00    +0.210 HD
ENDBRANCH   4   7
BRANCH   5   9
ATOM      9  O   UNL     1      96.648 134.596  55.808  0.00  0.00    -0.388 OA
ATOM     10  H   UNL     1      97.612 134.668  55.701  0.00  0.00    +0.210 HD
ENDBRANCH   5   9
BRANCH   6  11
ATOM     11  N   UNL     1      97.127 137.488  56.144  0.00  0.00    -0.302 NA
ATOM     12  H   UNL     1      96.985 136.982  55.271  0.00  0.00    +0.123 HD
BRANCH  11  13
ATOM     13  C   UNL     1      98.303 138.379  55.994  0.00  0.00    +0.109 C 
ATOM     14  C   UNL     1      99.188 138.017  54.833  0.00  0.00    -0.002 C 
ATOM     15  C   UNL     1      99.161 138.662  53.649  0.00  0.00    -0.016 C 
ATOM     16  C   UNL     1      98.151 139.725  53.328  0.00  0.00    +0.173 C 
ATOM     17  C   UNL     1      97.182 140.105  54.481  0.00  0.00    +0.177 C 
ATOM     18  C   UNL     1      97.830 139.857  55.857  0.00  0.00    +0.166 C 
BRANCH  16  19
ATOM     19  O   UNL     1      97.406 139.276  52.192  0.00  0.00    -0.385 OA
ATOM     20  H   UNL     1      96.606 138.833  52.517  0.00  0.00    +0.210 HD
ENDBRANCH  16  19
BRANCH  17  21
ATOM     21  O   UNL     1      96.783 141.479  54.337  0.00  0.00    -0.386 OA
ATOM     22  H   UNL     1      95.815 141.508  54.243  0.00  0.00    +0.210 HD
ENDBRANCH  17  21
BRANCH  18  23
ATOM     23  O   UNL     1      96.919 140.177  56.916  0.00  0.00    -0.387 OA
ATOM     24  H   UNL     1      96.056 140.343  56.487  0.00  0.00    +0.210 HD
ENDBRANCH  18  23
BRANCH  15  25
ATOM     25  C   UNL     1     100.191 138.407  52.572  0.00  0.00    +0.189 C 
BRANCH  25  26
ATOM     26  O   UNL     1      99.671 137.503  51.614  0.00  0.00    -0.391 OA
ATOM     27  H   UNL     1      99.729 136.613  52.019  0.00  0.00    +0.210 HD
ENDBRANCH  25  26
ENDBRANCH  15  25
ENDBRANCH  11  13
ENDBRANCH   6  11
BRANCH   3  28
ATOM     28  O   UNL     1      93.184 137.396  57.690  0.00  0.00    -0.342 OA
BRANCH  28  29
ATOM     29  C   UNL     1      93.409 138.428  56.684  0.00  0.00    +0.282 C 
ATOM     30  C   UNL     1      92.299 138.248  55.593  0.00  0.00    +0.201 C 
ATOM     31  C   UNL     1      91.939 139.518  54.783  0.00  0.00    +0.179 C 
ATOM     32  C   UNL     1      92.153 140.853  55.497  0.00  0.00    +0.177 C 
ATOM     33  C   UNL     1      93.484 140.768  56.234  0.00  0.00    +0.178 C 
ATOM     34  O   UNL     1      93.310 139.748  57.224  0.00  0.00    -0.341 OA
BRANCH  30  35
ATOM     35  O   UNL     1      92.703 137.234  54.646  0.00  0.00    -0.384 OA
ATOM     36  H   UNL     1      92.879 136.425  55.163  0.00  0.00    +0.210 HD
ENDBRANCH  30  35
BRANCH  31  37
ATOM     37  O   UNL     1      90.571 139.445  54.332  0.00  0.00    -0.386 OA
ATOM     38  H   UNL     1      90.148 140.313  54.481  0.00  0.00    +0.210 HD
ENDBRANCH  31  37
BRANCH  32  39
ATOM     39  O   UNL     1      92.136 141.935  54.554  0.00  0.00    -0.386 OA
ATOM     40  H   UNL     1      91.774 142.722  55.007  0.00  0.00    +0.210 HD
ENDBRANCH  32  39
BRANCH  33  41
ATOM     41  C   UNL     1      93.882 142.103  56.863  0.00  0.00    +0.190 C 
BRANCH  41  42
ATOM     42  O   UNL     1      95.197 142.511  56.494  0.00  0.00    -0.392 OA
ATOM     43  H   UNL     1      95.515 141.859  55.836  0.00  0.00    +0.210 HD
ENDBRANCH  41  42
ENDBRANCH  33  41
ENDBRANCH  28  29
ENDBRANCH   3  28
BRANCH   2  44
ATOM     44  C   UNL     1      95.204 138.148  60.066  0.00  0.00    +0.162 C 
BRANCH  44  45
ATOM     45  O   UNL     1      94.071 139.010  60.138  0.00  0.00    -0.395 OA
ATOM     46  H   UNL     1      93.277 138.488  59.950  0.00  0.00    +0.209 HD
ENDBRANCH  44  45
ENDBRANCH   2  44
TORSDOF 18
ENDMDL
MODEL 5
REMARK VINA RESULT:     0.001     10.114     12.889
REMARK INTER + INTRA:          -3.092
REMARK INTER:                   0.000
REMARK INTRA:                  -3.092
REMARK UNBOUND:                -3.093
REMARK  Name = 
REMARK  18 active torsions:
REMARK  status: ('A' for Active; 'I' for Inactive)
REMARK    1  A    between atoms: C_2  and  C_33
REMARK    2  A    between atoms: C_3  and  O_21
REMARK    3  A    between atoms: C_4  and  O_20
REMARK    4  A    between atoms: C_5  and  O_19
REMARK    5  A    between atoms: C_6  and  N_7
REMARK    6  A    between atoms: N_7  and  C_8
REMARK    7  A    between atoms: C_10  and  C_17
REMARK    8  A    between atoms: C_11  and  O_16
REMARK    9  A    between atoms: C_12  and  O_15
REMARK   10  A    between atoms: C_13  and  O_14
REMARK   11  A    between atoms: C_17  and  O_18
REMARK   12  A    between atoms: O_21  and  C_22
REMARK   13  A    between atoms: C_23  and  O_32
REMARK   14  A    between atoms: C_24  and  O_31
REMARK   15  A    between atoms: C_25  and  O_30
REMARK   16  A    between atoms: C_26  and  C_28
REMARK   17  A    between atoms: C_28  and  O_29
REMARK   18  A    between atoms: C_33  and  O_34
REMARK                            x       y       z     vdW  Elec       q    Type
REMARK                         _______ _______ _______ _____ _____    ______ ____
ROOT
ATOM      1  C   UNL     1      99.231 139.620  55.113  0.00  0.00    +0.029 C 
ATOM      2  C   UNL     1      98.872 140.522  56.314  0.00  0.00    +0.047 C 
ATOM      3  C   UNL     1      98.671 142.036  55.954  0.00  0.00    +0.158 C 
ATOM      4  C   UNL     1      99.604 142.519  54.808  0.00  0.00    +0.174 C 
ATOM      5  C   UNL     1      99.997 141.474  53.747  0.00  0.00    +0.162 C 
ATOM      6  C   UNL     1     100.439 140.128  54.346  0.00  0.00    +0.086 C 
ENDROOT
BRANCH   4   7
ATOM      7  O   UNL     1      98.943 143.619  54.142  0.00  0.00    -0.387 OA
ATOM      8  H   UNL     1      98.172 143.898  54.666  0.00  0.00    +0.210 HD
ENDBRANCH   4   7
BRANCH   5   9
ATOM      9  O   UNL     1     101.018 141.991  52.882  0.00  0.00    -0.388 OA
ATOM     10  H   UNL     1     101.486 142.691  53.368  0.00  0.00    +0.210 HD
ENDBRANCH   5   9
BRANCH   6  11
ATOM     11  N   UNL     1     101.666 140.251  55.174  0.00  0.00    -0.302 NA
ATOM     12  H   UNL     1     102.267 140.947  54.737  0.00  0.00    +0.123 HD
BRANCH  11  13
ATOM     13  C   UNL     1     102.436 138.996  55.352  0.00  0.00    +0.109 C 
ATOM     14  C   UNL     1     103.679 138.928  54.507  0.00  0.00    -0.002 C 
ATOM     15  C   UNL     1     104.915 139.180  54.983  0.00  0.00    -0.016 C 
ATOM     16  C   UNL     1     105.160 139.681  56.377  0.00  0.00    +0.173 C 
ATOM     17  C   UNL     1     103.901 139.812  57.278  0.00  0.00    +0.177 C 
ATOM     18  C   UNL     1     102.807 138.814  56.853  0.00  0.00    +0.166 C 
BRANCH  16  19
ATOM     19  O   UNL     1     105.815 140.948  56.265  0.00  0.00    -0.385 OA
ATOM     20  H   UNL     1     105.287 141.600  56.754  0.00  0.00    +0.210 HD
ENDBRANCH  16  19
BRANCH  17  21
ATOM     21  O   UNL     1     104.275 139.617  58.653  0.00  0.00    -0.386 OA
ATOM     22  H   UNL     1     104.835 140.363  58.926  0.00  0.00    +0.210 HD
ENDBRANCH  17  21
BRANCH  18  23
ATOM     23  O   UNL     1     101.636 138.963  57.666  0.00  0.00    -0.387 OA
ATOM     24  H   UNL     1     101.620 139.900  57.945  0.00  0.00    +0.210 HD
ENDBRANCH  18  23
BRANCH  15  25
ATOM     25  C   UNL     1     106.159 138.915  54.166  0.00  0.00    +0.189 C 
BRANCH  25  26
ATOM     26  O   UNL     1     106.603 140.117  53.564  0.00  0.00    -0.391 OA
ATOM     27  H   UNL     1     106.403 140.034  52.609  0.00  0.00    +0.210 HD
ENDBRANCH  25  26
ENDBRANCH  15  25
ENDBRANCH  11  13
ENDBRANCH   6  11
BRANCH   3  28
ATOM     28  O   UNL     1      98.935 142.803  57.170  0.00  0.00    -0.342 OA
BRANCH  28  29
ATOM     29  C   UNL     1     100.201 142.614  57.871  0.00  0.00    +0.282 C 
ATOM     30  C   UNL     1     100.768 144.043  58.176  0.00  0.00    +0.201 C 
ATOM     31  C   UNL     1     101.727 144.141  59.388  0.00  0.00    +0.179 C 
ATOM     32  C   UNL     1     101.519 143.107  60.494  0.00  0.00    +0.177 C 
ATOM     33  C   UNL     1     101.273 141.762  59.822  0.00  0.00    +0.178 C 
ATOM     34  O   UNL     1     100.041 141.911  59.105  0.00  0.00    -0.341 OA
BRANCH  30  35
ATOM     35  O   UNL     1     101.479 144.545  57.023  0.00  0.00    -0.384 OA
ATOM     36  H   UNL     1     100.806 144.734  56.342  0.00  0.00    +0.210 HD
ENDBRANCH  30  35
BRANCH  31  37
ATOM     37  O   UNL     1     101.659 145.461  59.965  0.00  0.00    -0.386 OA
ATOM     38  H   UNL     1     101.053 146.005  59.427  0.00  0.00    +0.210 HD
ENDBRANCH  31  37
BRANCH  32  39
ATOM     39  O   UNL     1     102.660 143.065  61.364  0.00  0.00    -0.386 OA
ATOM     40  H   UNL     1     102.928 143.985  61.554  0.00  0.00    +0.210 HD
ENDBRANCH  32  39
BRANCH  33  41
ATOM     41  C   UNL     1     101.202 140.616  60.831  0.00  0.00    +0.190 C 
BRANCH  41  42
ATOM     42  O   UNL     1     102.083 139.544  60.503  0.00  0.00    -0.392 OA
ATOM     43  H   UNL     1     102.990 139.911  60.536  0.00  0.00    +0.210 HD
ENDBRANCH  41  42
ENDBRANCH  33  41
ENDBRANCH  28  29
ENDBRANCH   3  28
BRANCH   2  44
ATOM     44  C   UNL     1      97.667 139.860  57.013  0.00  0.00    +0.162 C 
BRANCH  44  45
ATOM     45  O   UNL     1      97.461 140.379  58.324  0.00  0.00    -0.395 OA
ATOM     46  H   UNL     1      96.831 139.805  58.784  0.00  0.00    +0.209 HD
ENDBRANCH  44  45
ENDBRANCH   2  44
TORSDOF 18
ENDMDL
MODEL 6
REMARK VINA RESULT:     0.001     13.551     15.754
REMARK INTER + INTRA:          -3.092
REMARK INTER:                   0.000
REMARK INTRA:                  -3.092
REMARK UNBOUND:                -3.093
REMARK  Name = 
REMARK  18 active torsions:
REMARK  status: ('A' for Active; 'I' for Inactive)
REMARK    1  A    between atoms: C_2  and  C_33
REMARK    2  A    between atoms: C_3  and  O_21
REMARK    3  A    between atoms: C_4  and  O_20
REMARK    4  A    between atoms: C_5  and  O_19
REMARK    5  A    between atoms: C_6  and  N_7
REMARK    6  A    between atoms: N_7  and  C_8
REMARK    7  A    between atoms: C_10  and  C_17
REMARK    8  A    between atoms: C_11  and  O_16
REMARK    9  A    between atoms: C_12  and  O_15
REMARK   10  A    between atoms: C_13  and  O_14
REMARK   11  A    between atoms: C_17  and  O_18
REMARK   12  A    between atoms: O_21  and  C_22
REMARK   13  A    between atoms: C_23  and  O_32
REMARK   14  A    between atoms: C_24  and  O_31
REMARK   15  A    between atoms: C_25  and  O_30
REMARK   16  A    between atoms: C_26  and  C_28
REMARK   17  A    between atoms: C_28  and  O_29
REMARK   18  A    between atoms: C_33  and  O_34
REMARK                            x       y       z     vdW  Elec       q    Type
REMARK                         _______ _______ _______ _____ _____    ______ ____
ROOT
ATOM      1  C   UNL     1      91.119 133.885  61.423  0.00  0.00    +0.029 C 
ATOM      2  C   UNL     1      90.065 133.976  60.299  0.00  0.00    +0.047 C 
ATOM      3  C   UNL     1      90.590 134.615  58.965  0.00  0.00    +0.158 C 
ATOM      4  C   UNL     1      91.647 135.731  59.198  0.00  0.00    +0.174 C 
ATOM      5  C   UNL     1      92.546 135.585  60.441  0.00  0.00    +0.162 C 
ATOM      6  C   UNL     1      91.770 135.225  61.719  0.00  0.00    +0.086 C 
ENDROOT
BRANCH   4   7
ATOM      7  O   UNL     1      92.493 135.781  58.027  0.00  0.00    -0.387 OA
ATOM      8  H   UNL     1      91.940 135.879  57.233  0.00  0.00    +0.210 HD
ENDBRANCH   4   7
BRANCH   5   9
ATOM      9  O   UNL     1      93.318 136.776  60.648  0.00  0.00    -0.388 OA
ATOM     10  H   UNL     1      93.208 137.337  59.861  0.00  0.00    +0.210 HD
ENDBRANCH   5   9
BRANCH   6  11
ATOM     11  N   UNL     1      90.808 136.283  62.117  0.00  0.00    -0.302 NA
ATOM     12  H   UNL     1      91.228 137.184  61.897  0.00  0.00    +0.123 HD
BRANCH  11  13
ATOM     13  C   UNL     1      90.415 136.275  63.547  0.00  0.00    +0.109 C 
ATOM     14  C   UNL     1      91.083 137.348  64.361  0.00  0.00    -0.002 C 
ATOM     15  C   UNL     1      90.479 138.504  64.706  0.00  0.00    -0.016 C 
ATOM     16  C   UNL     1      89.118 138.889  64.201  0.00  0.00    +0.173 C 
ATOM     17  C   UNL     1      88.403 137.831  63.317  0.00  0.00    +0.177 C 
ATOM     18  C   UNL     1      88.867 136.405  63.669  0.00  0.00    +0.166 C 
BRANCH  16  19
ATOM     19  O   UNL     1      89.265 140.114  63.475  0.00  0.00    -0.385 OA
ATOM     20  H   UNL     1      89.426 140.823  64.119  0.00  0.00    +0.210 HD
ENDBRANCH  16  19
BRANCH  17  21
ATOM     21  O   UNL     1      86.979 137.964  63.470  0.00  0.00    -0.386 OA
ATOM     22  H   UNL     1      86.608 137.085  63.656  0.00  0.00    +0.210 HD
ENDBRANCH  17  21
BRANCH  18  23
ATOM     23  O   UNL     1      88.229 135.436  62.827  0.00  0.00    -0.387 OA
ATOM     24  H   UNL     1      88.923 135.109  62.221  0.00  0.00    +0.210 HD
ENDBRANCH  18  23
BRANCH  15  25
ATOM     25  C   UNL     1      91.101 139.474  65.684  0.00  0.00    +0.189 C 
BRANCH  25  26
ATOM     26  O   UNL     1      91.753 140.515  64.978  0.00  0.00    -0.391 OA
ATOM     27  H   UNL     1      91.082 141.215  64.844  0.00  0.00    +0.210 HD
ENDBRANCH  25  26
ENDBRANCH  15  25
ENDBRANCH  11  13
ENDBRANCH   6  11
BRANCH   3  28
ATOM     28  O   UNL     1      89.428 135.167  58.270  0.00  0.00    -0.342 OA
BRANCH  28  29
ATOM     29  C   UNL     1      88.556 136.104  58.970  0.00  0.00    +0.282 C 
ATOM     30  C   UNL     1      88.318 137.312  58.002  0.00  0.00    +0.201 C 
ATOM     31  C   UNL     1      87.008 138.108  58.227  0.00  0.00    +0.179 C 
ATOM     32  C   UNL     1      85.844 137.325  58.836  0.00  0.00    +0.177 C 
ATOM     33  C   UNL     1      86.412 136.456  59.951  0.00  0.00    +0.178 C 
ATOM     34  O   UNL     1      87.291 135.528  59.304  0.00  0.00    -0.341 OA
BRANCH  30  35
ATOM     35  O   UNL     1      89.413 138.249  58.108  0.00  0.00    -0.384 OA
ATOM     36  H   UNL     1      90.217 137.719  58.271  0.00  0.00    +0.210 HD
ENDBRANCH  30  35
BRANCH  31  37
ATOM     37  O   UNL     1      86.572 138.703  56.989  0.00  0.00    -0.386 OA
ATOM     38  H   UNL     1      86.857 139.637  56.975  0.00  0.00    +0.210 HD
ENDBRANCH  31  37
BRANCH  32  39
ATOM     39  O   UNL     1      84.836 138.223  59.324  0.00  0.00    -0.386 OA
ATOM     40  H   UNL     1      85.031 139.114  58.972  0.00  0.00    +0.210 HD
ENDBRANCH  32  39
BRANCH  33  41
ATOM     41  C   UNL     1      85.316 135.737  60.738  0.00  0.00    +0.190 C 
BRANCH  41  42
ATOM     42  O   UNL     1      85.425 135.950  62.144  0.00  0.00    -0.392 OA
ATOM     43  H   UNL     1      85.174 135.106  62.572  0.00  0.00    +0.210 HD
ENDBRANCH  41  42
ENDBRANCH  33  41
ENDBRANCH  28  29
ENDBRANCH   3  28
BRANCH   2  44
ATOM     44  C   UNL     1      89.467 132.564  60.145  0.00  0.00    +0.162 C 
BRANCH  44  45
ATOM     45  O   UNL     1      88.248 132.579  59.406  0.00  0.00    -0.395 OA
ATOM     46  H   UNL     1      88.212 131.780  58.859  0.00  0.00    +0.209 HD
ENDBRANCH  44  45
ENDBRANCH   2  44
TORSDOF 18
ENDMDL
MODEL 7
REMARK VINA RESULT:     0.001     12.031     15.178
REMARK INTER + INTRA:          -3.091
REMARK INTER:                   0.000
REMARK INTRA:                  -3.091
REMARK UNBOUND:                -3.093
REMARK  Name = 
REMARK  18 active torsions:
REMARK  status: ('A' for Active; 'I' for Inactive)
REMARK    1  A    between atoms: C_2  and  C_33
REMARK    2  A    between atoms: C_3  and  O_21
REMARK    3  A    between atoms: C_4  and  O_20
REMARK    4  A    between atoms: C_5  and  O_19
REMARK    5  A    between atoms: C_6  and  N_7
REMARK    6  A    between atoms: N_7  and  C_8
REMARK    7  A    between atoms: C_10  and  C_17
REMARK    8  A    between atoms: C_11  and  O_16
REMARK    9  A    between atoms: C_12  and  O_15
REMARK   10  A    between atoms: C_13  and  O_14
REMARK   11  A    between atoms: C_17  and  O_18
REMARK   12  A    between atoms: O_21  and  C_22
REMARK   13  A    between atoms: C_23  and  O_32
REMARK   14  A    between atoms: C_24  and  O_31
REMARK   15  A    between atoms: C_25  and  O_30
REMARK   16  A    between atoms: C_26  and  C_28
REMARK   17  A    between atoms: C_28  and  O_29
REMARK   18  A    between atoms: C_33  and  O_34
REMARK                            x       y       z     vdW  Elec       q    Type
REMARK                         _______ _______ _______ _____ _____    ______ ____
ROOT
ATOM      1  C   UNL     1      96.423 134.021  68.748  0.00  0.00    +0.029 C 
ATOM      2  C   UNL     1      94.933 134.406  68.875  0.00  0.00    +0.047 C 
ATOM      3  C   UNL     1      93.931 133.285  68.428  0.00  0.00    +0.158 C 
ATOM      4  C   UNL     1      94.464 132.426  67.247  0.00  0.00    +0.174 C 
ATOM      5  C   UNL     1      95.990 132.235  67.162  0.00  0.00    +0.162 C 
ATOM      6  C   UNL     1      96.782 133.541  67.353  0.00  0.00    +0.086 C 
ENDROOT
BRANCH   4   7
ATOM      7  O   UNL     1      93.846 131.122  67.343  0.00  0.00    -0.387 OA
ATOM      8  H   UNL     1      94.537 130.441  67.407  0.00  0.00    +0.210 HD
ENDBRANCH   4   7
BRANCH   5   9
ATOM      9  O   UNL     1      96.354 131.612  65.923  0.00  0.00    -0.388 OA
ATOM     10  H   UNL     1      95.897 132.090  65.210  0.00  0.00    +0.210 HD
ENDBRANCH   5   9
BRANCH   6  11
ATOM     11  N   UNL     1      96.503 134.535  66.287  0.00  0.00    -0.302 NA
ATOM     12  H   UNL     1      96.374 134.027  65.414  0.00  0.00    +0.123 HD
BRANCH  11  13
ATOM     13  C   UNL     1      97.554 135.563  66.091  0.00  0.00    +0.109 C 
ATOM     14  C   UNL     1      98.411 135.324  64.878  0.00  0.00    -0.002 C 
ATOM     15  C   UNL     1      98.242 135.975  63.710  0.00  0.00    -0.016 C 
ATOM     16  C   UNL     1      97.097 136.914  63.463  0.00  0.00    +0.173 C 
ATOM     17  C   UNL     1      96.154 137.160  64.673  0.00  0.00    +0.177 C 
ATOM     18  C   UNL     1      96.902 136.975  66.007  0.00  0.00    +0.166 C 
BRANCH  16  19
ATOM     19  O   UNL     1      96.349 136.392  62.360  0.00  0.00    -0.385 OA
ATOM     20  H   UNL     1      96.221 135.442  62.511  0.00  0.00    +0.210 HD
ENDBRANCH  16  19
BRANCH  17  21
ATOM     21  O   UNL     1      95.587 138.478  64.576  0.00  0.00    -0.386 OA
ATOM     22  H   UNL     1      96.314 139.125  64.571  0.00  0.00    +0.210 HD
ENDBRANCH  17  21
BRANCH  18  23
ATOM     23  O   UNL     1      96.019 137.170  67.119  0.00  0.00    -0.387 OA
ATOM     24  H   UNL     1      95.139 137.355  66.734  0.00  0.00    +0.210 HD
ENDBRANCH  18  23
BRANCH  15  25
ATOM     25  C   UNL     1      99.235 135.859  62.575  0.00  0.00    +0.189 C 
BRANCH  25  26
ATOM     26  O   UNL     1      98.774 134.910  61.630  0.00  0.00    -0.391 OA
ATOM     27  H   UNL     1      98.899 134.031  62.043  0.00  0.00    +0.210 HD
ENDBRANCH  25  26
ENDBRANCH  15  25
ENDBRANCH  11  13
ENDBRANCH   6  11
BRANCH   3  28
ATOM     28  O   UNL     1      92.689 133.952  68.039  0.00  0.00    -0.342 OA
BRANCH  28  29
ATOM     29  C   UNL     1      92.734 135.016  67.041  0.00  0.00    +0.282 C 
ATOM     30  C   UNL     1      91.596 134.717  66.007  0.00  0.00    +0.201 C 
ATOM     31  C   UNL     1      91.043 135.945  65.241  0.00  0.00    +0.179 C 
ATOM     32  C   UNL     1      91.135 137.287  65.968  0.00  0.00    +0.177 C 
ATOM     33  C   UNL     1      92.505 137.353  66.631  0.00  0.00    +0.178 C 
ATOM     34  O   UNL     1      92.509 136.308  67.611  0.00  0.00    -0.341 OA
BRANCH  30  35
ATOM     35  O   UNL     1      92.064 133.771  65.022  0.00  0.00    -0.384 OA
ATOM     36  H   UNL     1      93.017 133.944  64.902  0.00  0.00    +0.210 HD
ENDBRANCH  30  35
BRANCH  31  37
ATOM     37  O   UNL     1      89.671 135.714  64.863  0.00  0.00    -0.386 OA
ATOM     38  H   UNL     1      89.247 136.576  64.688  0.00  0.00    +0.210 HD
ENDBRANCH  31  37
BRANCH  32  39
ATOM     39  O   UNL     1      90.938 138.371  65.048  0.00  0.00    -0.386 OA
ATOM     40  H   UNL     1      91.013 138.013  64.141  0.00  0.00    +0.210 HD
ENDBRANCH  32  39
BRANCH  33  41
ATOM     41  C   UNL     1      92.775 138.719  67.264  0.00  0.00    +0.190 C 
BRANCH  41  42
ATOM     42  O   UNL     1      94.012 139.284  66.836  0.00  0.00    -0.392 OA
ATOM     43  H   UNL     1      94.537 139.446  67.646  0.00  0.00    +0.210 HD
ENDBRANCH  41  42
ENDBRANCH  33  41
ENDBRANCH  28  29
ENDBRANCH   3  28
BRANCH   2  44
ATOM     44  C   UNL     1      94.733 134.912  70.318  0.00  0.00    +0.162 C 
BRANCH  44  45
ATOM     45  O   UNL     1      93.511 135.630  70.466  0.00  0.00    -0.395 OA
ATOM     46  H   UNL     1      92.826 135.177  69.951  0.00  0.00    +0.209 HD
ENDBRANCH  44  45
ENDBRANCH   2  44
TORSDOF 18
ENDMDL
MODEL 8
REMARK VINA RESULT:     0.001     19.761     22.255
REMARK INTER + INTRA:          -3.091
REMARK INTER:                   0.000
REMARK INTRA:                  -3.091
REMARK UNBOUND:                -3.093
REMARK  Name = 
REMARK  18 active torsions:
REMARK  status: ('A' for Active; 'I' for Inactive)
REMARK    1  A    between atoms: C_2  and  C_33
REMARK    2  A    between atoms: C_3  and  O_21
REMARK    3  A    between atoms: C_4  and  O_20
REMARK    4  A    between atoms: C_5  and  O_19
REMARK    5  A    between atoms: C_6  and  N_7
REMARK    6  A    between atoms: N_7  and  C_8
REMARK    7  A    between atoms: C_10  and  C_17
REMARK    8  A    between atoms: C_11  and  O_16
REMARK    9  A    between atoms: C_12  and  O_15
REMARK   10  A    between atoms: C_13  and  O_14
REMARK   11  A    between atoms: C_17  and  O_18
REMARK   12  A    between atoms: O_21  and  C_22
REMARK   13  A    between atoms: C_23  and  O_32
REMARK   14  A    between atoms: C_24  and  O_31
REMARK   15  A    between atoms: C_25  and  O_30
REMARK   16  A    between atoms: C_26  and  C_28
REMARK   17  A    between atoms: C_28  and  O_29
REMARK   18  A    between atoms: C_33  and  O_34
REMARK                            x       y       z     vdW  Elec       q    Type
REMARK                         _______ _______ _______ _____ _____    ______ ____
ROOT
ATOM      1  C   UNL     1      88.824 138.465  68.050  0.00  0.00    +0.029 C 
ATOM      2  C   UNL     1      88.133 139.844  68.119  0.00  0.00    +0.047 C 
ATOM      3  C   UNL     1      88.714 140.914  67.128  0.00  0.00    +0.158 C 
ATOM      4  C   UNL     1      90.244 140.767  66.902  0.00  0.00    +0.174 C 
ATOM      5  C   UNL     1      90.826 139.344  66.997  0.00  0.00    +0.162 C 
ATOM      6  C   UNL     1      90.329 138.560  68.224  0.00  0.00    +0.086 C 
ENDROOT
BRANCH   4   7
ATOM      7  O   UNL     1      90.543 141.295  65.589  0.00  0.00    -0.387 OA
ATOM      8  H   UNL     1      89.877 140.979  64.955  0.00  0.00    +0.210 HD
ENDBRANCH   4   7
BRANCH   5   9
ATOM      9  O   UNL     1      92.260 139.382  66.981  0.00  0.00    -0.388 OA
ATOM     10  H   UNL     1      92.536 139.584  66.070  0.00  0.00    +0.210 HD
ENDBRANCH   5   9
BRANCH   6  11
ATOM     11  N   UNL     1      90.745 139.185  69.504  0.00  0.00    -0.302 NA
ATOM     12  H   UNL     1      91.676 139.576  69.372  0.00  0.00    +0.123 HD
BRANCH  11  13
ATOM     13  C   UNL     1      90.772 138.273  70.673  0.00  0.00    +0.109 C 
ATOM     14  C   UNL     1      92.158 137.842  71.070  0.00  0.00    -0.002 C 
ATOM     15  C   UNL     1      92.840 138.389  72.097  0.00  0.00    -0.016 C 
ATOM     16  C   UNL     1      92.332 139.572  72.869  0.00  0.00    +0.173 C 
ATOM     17  C   UNL     1      90.921 140.084  72.467  0.00  0.00    +0.177 C 
ATOM     18  C   UNL     1      90.061 138.946  71.885  0.00  0.00    +0.166 C 
BRANCH  16  19
ATOM     19  O   UNL     1      93.293 140.621  72.720  0.00  0.00    -0.385 OA
ATOM     20  H   UNL     1      93.140 141.267  73.429  0.00  0.00    +0.210 HD
ENDBRANCH  16  19
BRANCH  17  21
ATOM     21  O   UNL     1      90.285 140.679  73.612  0.00  0.00    -0.386 OA
ATOM     22  H   UNL     1      90.472 140.124  74.388  0.00  0.00    +0.210 HD
ENDBRANCH  17  21
BRANCH  18  23
ATOM     23  O   UNL     1      88.774 139.432  71.485  0.00  0.00    -0.387 OA
ATOM     24  H   UNL     1      88.172 138.662  71.525  0.00  0.00    +0.210 HD
ENDBRANCH  18  23
BRANCH  15  25
ATOM     25  C   UNL     1      94.144 137.808  72.594  0.00  0.00    +0.189 C 
BRANCH  25  26
ATOM     26  O   UNL     1      95.232 138.527  72.040  0.00  0.00    -0.391 OA
ATOM     27  H   UNL     1      95.122 138.481  71.068  0.00  0.00    +0.210 HD
ENDBRANCH  25  26
ENDBRANCH  15  25
ENDBRANCH  11  13
ENDBRANCH   6  11
BRANCH   3  28
ATOM     28  O   UNL     1      88.417 142.228  67.696  0.00  0.00    -0.342 OA
BRANCH  28  29
ATOM     29  C   UNL     1      88.836 142.525  69.062  0.00  0.00    +0.282 C 
ATOM     30  C   UNL     1      89.533 143.928  69.027  0.00  0.00    +0.201 C 
ATOM     31  C   UNL     1      89.516 144.722  70.357  0.00  0.00    +0.179 C 
ATOM     32  C   UNL     1      88.346 144.430  71.298  0.00  0.00    +0.177 C 
ATOM     33  C   UNL     1      88.131 142.921  71.305  0.00  0.00    +0.178 C 
ATOM     34  O   UNL     1      87.733 142.584  69.970  0.00  0.00    -0.341 OA
BRANCH  30  35
ATOM     35  O   UNL     1      90.915 143.778  68.634  0.00  0.00    -0.384 OA
ATOM     36  H   UNL     1      90.916 143.234  67.824  0.00  0.00    +0.210 HD
ENDBRANCH  30  35
BRANCH  31  37
ATOM     37  O   UNL     1      89.555 146.138  70.088  0.00  0.00    -0.386 OA
ATOM     38  H   UNL     1      90.397 146.496  70.429  0.00  0.00    +0.210 HD
ENDBRANCH  31  37
BRANCH  32  39
ATOM     39  O   UNL     1      88.622 144.933  72.613  0.00  0.00    -0.386 OA
ATOM     40  H   UNL     1      88.877 144.177  73.177  0.00  0.00    +0.210 HD
ENDBRANCH  32  39
BRANCH  33  41
ATOM     41  C   UNL     1      87.082 142.492  72.331  0.00  0.00    +0.190 C 
BRANCH  41  42
ATOM     42  O   UNL     1      87.559 141.471  73.204  0.00  0.00    -0.392 OA
ATOM     43  H   UNL     1      88.440 141.209  72.869  0.00  0.00    +0.210 HD
ENDBRANCH  41  42
ENDBRANCH  33  41
ENDBRANCH  28  29
ENDBRANCH   3  28
BRANCH   2  44
ATOM     44  C   UNL     1      86.620 139.584  67.973  0.00  0.00    +0.162 C 
BRANCH  44  45
ATOM     45  O   UNL     1      85.845 140.711  68.374  0.00  0.00    -0.395 OA
ATOM     46  H   UNL     1      84.922 140.429  68.467  0.00  0.00    +0.209 HD
ENDBRANCH  44  45
ENDBRANCH   2  44
TORSDOF 18
ENDMDL
MODEL 9
REMARK VINA RESULT:     0.002      6.849      9.459
REMARK INTER + INTRA:          -3.089
REMARK INTER:                   0.000
REMARK INTRA:                  -3.089
REMARK UNBOUND:                -3.093
REMARK  Name = 
REMARK  18 active torsions:
REMARK  status: ('A' for Active; 'I' for Inactive)
REMARK    1  A    between atoms: C_2  and  C_33
REMARK    2  A    between atoms: C_3  and  O_21
REMARK    3  A    between atoms: C_4  and  O_20
REMARK    4  A    between atoms: C_5  and  O_19
REMARK    5  A    between atoms: C_6  and  N_7
REMARK    6  A    between atoms: N_7  and  C_8
REMARK    7  A    between atoms: C_10  and  C_17
REMARK    8  A    between atoms: C_11  and  O_16
REMARK    9  A    between atoms: C_12  and  O_15
REMARK   10  A    between atoms: C_13  and  O_14
REMARK   11  A    between atoms: C_17  and  O_18
REMARK   12  A    between atoms: O_21  and  C_22
REMARK   13  A    between atoms: C_23  and  O_32
REMARK   14  A    between atoms: C_24  and  O_31
REMARK   15  A    between atoms: C_25  and  O_30
REMARK   16  A    between atoms: C_26  and  C_28
REMARK   17  A    between atoms: C_28  and  O_29
REMARK   18  A    between atoms: C_33  and  O_34
REMARK                            x       y       z     vdW  Elec       q    Type
REMARK                         _______ _______ _______ _____ _____    ______ ____
ROOT
ATOM      1  C   UNL     1      97.127 135.524  55.202  0.00  0.00    +0.029 C 
ATOM      2  C   UNL     1      98.475 135.832  54.516  0.00  0.00    +0.047 C 
ATOM      3  C   UNL     1      99.727 135.216  55.235  0.00  0.00    +0.158 C 
ATOM      4  C   UNL     1      99.579 135.167  56.781  0.00  0.00    +0.174 C 
ATOM      5  C   UNL     1      98.153 134.992  57.336  0.00  0.00    +0.162 C 
ATOM      6  C   UNL     1      97.119 135.915  56.669  0.00  0.00    +0.086 C 
ENDROOT
BRANCH   4   7
ATOM      7  O   UNL     1     100.393 134.073  57.263  0.00  0.00    -0.387 OA
ATOM      8  H   UNL     1     100.591 134.208  58.205  0.00  0.00    +0.210 HD
ENDBRANCH   4   7
BRANCH   5   9
ATOM      9  O   UNL     1      98.138 135.177  58.759  0.00  0.00    -0.388 OA
ATOM     10  H   UNL     1      97.876 134.331  59.160  0.00  0.00    +0.210 HD
ENDBRANCH   5   9
BRANCH   6  11
ATOM     11  N   UNL     1      97.403 137.353  56.907  0.00  0.00    -0.302 NA
ATOM     12  H   UNL     1      97.777 137.444  57.849  0.00  0.00    +0.123 HD
BRANCH  11  13
ATOM     13  C   UNL     1      96.238 138.259  56.765  0.00  0.00    +0.109 C 
ATOM     14  C   UNL     1      95.671 138.721  58.079  0.00  0.00    -0.002 C 
ATOM     15  C   UNL     1      95.929 139.931  58.615  0.00  0.00    -0.016 C 
ATOM     16  C   UNL     1      96.913 140.892  58.013  0.00  0.00    +0.173 C 
ATOM     17  C   UNL     1      97.562 140.441  56.675  0.00  0.00    +0.177 C 
ATOM     18  C   UNL     1      96.631 139.491  55.897  0.00  0.00    +0.166 C 
BRANCH  16  19
ATOM     19  O   UNL     1      97.929 141.130  58.992  0.00  0.00    -0.385 OA
ATOM     20  H   UNL     1      98.592 140.425  58.911  0.00  0.00    +0.210 HD
ENDBRANCH  16  19
BRANCH  17  21
ATOM     21  O   UNL     1      97.892 141.600  55.890  0.00  0.00    -0.386 OA
ATOM     22  H   UNL     1      98.686 141.399  55.366  0.00  0.00    +0.210 HD
ENDBRANCH  17  21
BRANCH  18  23
ATOM     23  O   UNL     1      97.249 139.053  54.680  0.00  0.00    -0.387 OA
ATOM     24  H   UNL     1      96.666 138.355  54.320  0.00  0.00    +0.210 HD
ENDBRANCH  18  23
BRANCH  15  25
ATOM     25  C   UNL     1      95.195 140.442  59.834  0.00  0.00    +0.189 C 
BRANCH  25  26
ATOM     26  O   UNL     1      95.981 140.229  60.993  0.00  0.00    -0.391 OA
ATOM     27  H   UNL     1      96.282 139.297  60.951  0.00  0.00    +0.210 HD
ENDBRANCH  25  26
ENDBRANCH  15  25
ENDBRANCH  11  13
ENDBRANCH   6  11
BRANCH   3  28
ATOM     28  O   UNL     1     100.878 136.040  54.869  0.00  0.00    -0.342 OA
BRANCH  28  29
ATOM     29  C   UNL     1     100.825 137.480  55.096  0.00  0.00    +0.282 C 
ATOM     30  C   UNL     1     102.167 137.878  55.799  0.00  0.00    +0.201 C 
ATOM     31  C   UNL     1     102.621 139.346  55.602  0.00  0.00    +0.179 C 
ATOM     32  C   UNL     1     102.158 140.024  54.312  0.00  0.00    +0.177 C 
ATOM     33  C   UNL     1     100.701 139.637  54.090  0.00  0.00    +0.178 C 
ATOM     34  O   UNL     1     100.708 138.220  53.879  0.00  0.00    -0.341 OA
BRANCH  30  35
ATOM     35  O   UNL     1     102.063 137.648  57.222  0.00  0.00    -0.384 OA
ATOM     36  H   UNL     1     101.168 137.292  57.381  0.00  0.00    +0.210 HD
ENDBRANCH  30  35
BRANCH  31  37
ATOM     37  O   UNL     1     104.057 139.435  55.685  0.00  0.00    -0.386 OA
ATOM     38  H   UNL     1     104.335 139.149  56.577  0.00  0.00    +0.210 HD
ENDBRANCH  31  37
BRANCH  32  39
ATOM     39  O   UNL     1     102.322 141.447  54.405  0.00  0.00    -0.386 OA
ATOM     40  H   UNL     1     103.274 141.647  54.313  0.00  0.00    +0.210 HD
ENDBRANCH  32  39
BRANCH  33  41
ATOM     41  C   UNL     1     100.081 140.380  52.906  0.00  0.00    +0.190 C 
BRANCH  41  42
ATOM     42  O   UNL     1      98.866 141.040  53.253  0.00  0.00    -0.392 OA
ATOM     43  H   UNL     1      98.724 141.732  52.575  0.00  0.00    +0.210 HD
ENDBRANCH  41  42
ENDBRANCH  33  41
ENDBRANCH  28  29
ENDBRANCH   3  28
BRANCH   2  44
ATOM     44  C   UNL     1      98.317 135.426  53.037  0.00  0.00    +0.162 C 
BRANCH  44  45
ATOM     45  O   UNL     1      99.344 135.982  52.219  0.00  0.00    -0.395 OA
ATOM     46  H   UNL     1      99.583 135.330  51.544  0.00  0.00    +0.209 HD
ENDBRANCH  44  45
ENDBRANCH   2  44
TORSDOF 18
ENDMDL
