MODEL 1
REMARK VINA RESULT:     0.000      0.000      0.000
REMARK INTER + INTRA:          -3.761
REMARK INTER:                   0.000
REMARK INTRA:                  -3.761
REMARK UNBOUND:                -3.761
REMARK  Name = 
REMARK  22 active torsions:
REMARK  status: ('A' for Active; 'I' for Inactive)
REMARK    1  A    between atoms: C_1  and  C_2
REMARK    2  A    between atoms: C_2  and  C_3
REMARK    3  A    between atoms: C_2  and  C_4
REMARK    4  A    between atoms: C_4  and  C_5
REMARK    5  A    between atoms: C_4  and  C_6
REMARK    6  A    between atoms: C_6  and  C_7
REMARK    7  A    between atoms: C_10  and  C_11
REMARK    8  A    between atoms: C_16  and  C_17
REMARK    9  A    between atoms: C_23  and  N_24
REMARK   10  A    between atoms: C_28  and  C_29
REMARK   11  A    between atoms: C_35  and  O_36
REMARK   12  A    between atoms: O_36  and  C_37
REMARK   13  A    between atoms: C_37  and  C_38
REMARK   14  A    between atoms: C_38  and  C_39
REMARK   15  A    between atoms: C_38  and  N_40
REMARK   16  A    between atoms: C_38  and  C_41
REMARK   17  A    between atoms: C_41  and  C_42
REMARK   18  A    between atoms: C_41  and  C_43
REMARK   19  A    between atoms: C_41  and  C_44
REMARK   20  A    between atoms: C_48  and  C_49
REMARK   21  A    between atoms: C_50  and  C_51
REMARK   22  A    between atoms: C_51  and  O_53
REMARK                            x       y       z     vdW  Elec       q    Type
REMARK                         _______ _______ _______ _____ _____    ______ ____
ROOT
ATOM      1  C   UNL     1      94.061 144.747  62.619  0.00  0.00    +0.000 C 
ATOM      2  C   UNL     1      92.982 145.738  63.159  0.00  0.00    +0.000 C 
ATOM      3  C   UNL     1      93.184 143.649  61.833  0.00  0.00    +0.000 C 
ATOM      4  C   UNL     1      93.261 142.110  62.202  0.00  0.00    +0.000 C 
ATOM      5  C   UNL     1      94.553 141.750  63.005  0.00  0.00    +0.000 C 
ATOM      6  C   UNL     1      95.622 141.891  61.902  0.00  0.00    +0.000 C 
ATOM      7  C   UNL     1      94.720 140.272  63.513  0.00  0.00    +0.000 C 
ATOM      8  C   UNL     1      96.020 139.495  63.157  0.00  0.00    +0.000 C 
ATOM      9  C   UNL     1      95.909 138.007  63.513  0.00  0.00    +0.000 C 
ATOM     10  C   UNL     1      94.610 137.679  64.273  0.00  0.00    +0.000 C 
ATOM     11  C   UNL     1      94.436 136.244  64.736  0.00  0.00    +0.000 C 
ATOM     12  C   UNL     1      94.872 135.243  63.642  0.00  0.00    +0.000 C 
ATOM     13  C   UNL     1      95.335 136.012  65.964  0.00  0.00    +0.000 C 
ATOM     14  O   UNL     1      94.929 136.842  67.039  0.00  0.00    +0.000 OA
ATOM     15  C   UNL     1      95.105 138.217  66.727  0.00  0.00    +0.000 C 
ATOM     16  C   UNL     1      94.307 138.643  65.460  0.00  0.00    +0.000 C 
ATOM     17  C   UNL     1      92.820 138.646  65.824  0.00  0.00    +0.000 C 
ATOM     18  C   UNL     1      92.176 137.272  65.766  0.00  0.00    +0.000 C 
ATOM     19  C   UNL     1      92.900 136.088  65.026  0.00  0.00    +0.000 C 
ATOM     20  C   UNL     1      94.657 140.031  65.014  0.00  0.00    +0.000 C 
ATOM     21  C   UNL     1      95.080 140.962  65.873  0.00  0.00    +0.000 C 
ATOM     22  C   UNL     1      95.508 142.261  65.340  0.00  0.00    +0.000 C 
ATOM     23  C   UNL     1      94.506 142.727  64.250  0.00  0.00    +0.000 C 
ATOM     24  C   UNL     1      93.079 142.750  64.932  0.00  0.00    +0.000 C 
ATOM     25  C   UNL     1      94.917 144.119  63.765  0.00  0.00    +0.000 C 
ENDROOT
BRANCH  18  26
ATOM     26  N   UNL     1      90.741 137.423  65.415  0.00  0.00    +0.000 N 
ATOM     27  N   UNL     1      89.867 137.470  66.460  0.00  0.00    +0.000 NA
ATOM     28  C   UNL     1      88.695 137.451  65.834  0.00  0.00    +0.000 A 
ATOM     29  N   UNL     1      88.745 137.462  64.468  0.00  0.00    +0.000 NA
ATOM     30  C   UNL     1      90.047 137.529  64.210  0.00  0.00    +0.000 A 
BRANCH  30  31
ATOM     31  C   UNL     1      90.537 137.696  62.828  0.00  0.00    +0.000 A 
ATOM     32  C   UNL     1      91.413 138.728  62.481  0.00  0.00    +0.000 A 
ATOM     33  C   UNL     1      91.858 138.840  61.159  0.00  0.00    +0.000 A 
ATOM     34  N   UNL     1      91.463 138.031  60.155  0.00  0.00    +0.000 NA
ATOM     35  C   UNL     1      90.671 137.020  60.510  0.00  0.00    +0.000 A 
ATOM     36  C   UNL     1      90.268 136.800  61.817  0.00  0.00    +0.000 A 
ENDBRANCH  30  31
ENDBRANCH  18  26
BRANCH   1  37
ATOM     37  C   UNL     1      95.029 145.611  61.616  0.00  0.00    +0.000 C 
ATOM     38  C   UNL     1      95.168 147.129  61.874  0.00  0.00    +0.000 C 
BRANCH  37  40
ATOM     39  C   UNL     1      94.544 146.774  59.304  0.00  0.00    +0.000 C 
ATOM     40  C   UNL     1      94.830 145.478  60.055  0.00  0.00    +0.000 C 
ATOM     41  C   UNL     1      95.839 144.580  59.302  0.00  0.00    +0.000 C 
ENDBRANCH  37  40
ENDBRANCH   1  37
BRANCH  25  42
ATOM     42  C   UNL     1      95.317 144.953  64.977  0.00  0.00    +0.000 C 
ATOM     43  O   UNL     1      94.554 145.309  65.865  0.00  0.00    +0.000 OA
BRANCH  42  44
ATOM     44  O   UNL     1      96.548 145.480  64.934  0.00  0.00    +0.000 OA
ATOM     45  H   UNL     1      96.369 146.445  64.921  0.00  0.00    +0.000 HD
ENDBRANCH  42  44
ENDBRANCH  25  42
BRANCH  19  46
ATOM     46  O   UNL     1      92.787 134.851  65.736  0.00  0.00    +0.000 OA
BRANCH  46  47
ATOM     47  C   UNL     1      91.715 134.033  65.296  0.00  0.00    +0.000 C 
BRANCH  47  48
ATOM     48  C   UNL     1      92.185 132.601  64.994  0.00  0.00    +0.000 C 
ATOM     49  C   UNL     1      91.253 131.706  65.843  0.00  0.00    +0.000 C 
BRANCH  48  50
ATOM     50  C   UNL     1      92.168 132.262  63.448  0.00  0.00    +0.000 C 
ATOM     51  C   UNL     1      93.566 131.806  62.980  0.00  0.00    +0.000 C 
ATOM     52  C   UNL     1      91.168 131.123  63.130  0.00  0.00    +0.000 C 
ATOM     53  C   UNL     1      91.764 133.465  62.562  0.00  0.00    +0.000 C 
ENDBRANCH  48  50
BRANCH  48  54
ATOM     54  N   UNL     1      93.535 132.478  65.582  0.00  0.00    +0.000 NA
ATOM     55  H   UNL     1      93.553 131.833  66.350  0.00  0.00    +0.000 HD
ATOM     56  H   UNL     1      94.172 132.109  64.858  0.00  0.00    +0.000 HD
ENDBRANCH  48  54
ENDBRANCH  47  48
ENDBRANCH  46  47
ENDBRANCH  19  46
TORSDOF 11
ENDMDL
MODEL 2
REMARK VINA RESULT:     0.000     10.588     13.235
REMARK INTER + INTRA:          -3.760
REMARK INTER:                   0.000
REMARK INTRA:                  -3.760
REMARK UNBOUND:                -3.761
REMARK  Name = 
REMARK  22 active torsions:
REMARK  status: ('A' for Active; 'I' for Inactive)
REMARK    1  A    between atoms: C_1  and  C_2
REMARK    2  A    between atoms: C_2  and  C_3
REMARK    3  A    between atoms: C_2  and  C_4
REMARK    4  A    between atoms: C_4  and  C_5
REMARK    5  A    between atoms: C_4  and  C_6
REMARK    6  A    between atoms: C_6  and  C_7
REMARK    7  A    between atoms: C_10  and  C_11
REMARK    8  A    between atoms: C_16  and  C_17
REMARK    9  A    between atoms: C_23  and  N_24
REMARK   10  A    between atoms: C_28  and  C_29
REMARK   11  A    between atoms: C_35  and  O_36
REMARK   12  A    between atoms: O_36  and  C_37
REMARK   13  A    between atoms: C_37  and  C_38
REMARK   14  A    between atoms: C_38  and  C_39
REMARK   15  A    between atoms: C_38  and  N_40
REMARK   16  A    between atoms: C_38  and  C_41
REMARK   17  A    between atoms: C_41  and  C_42
REMARK   18  A    between atoms: C_41  and  C_43
REMARK   19  A    between atoms: C_41  and  C_44
REMARK   20  A    between atoms: C_48  and  C_49
REMARK   21  A    between atoms: C_50  and  C_51
REMARK   22  A    between atoms: C_51  and  O_53
REMARK                            x       y       z     vdW  Elec       q    Type
REMARK                         _______ _______ _______ _____ _____    ______ ____
ROOT
ATOM      1  C   UNL     1      98.870 129.676  61.171  0.00  0.00    +0.000 C 
ATOM      2  C   UNL     1      98.994 128.612  60.035  0.00  0.00    +0.000 C 
ATOM      3  C   UNL     1      99.534 128.934  62.437  0.00  0.00    +0.000 C 
ATOM      4  C   UNL     1      98.732 128.724  63.787  0.00  0.00    +0.000 C 
ATOM      5  C   UNL     1      97.506 129.685  63.912  0.00  0.00    +0.000 C 
ATOM      6  C   UNL     1      98.222 131.031  64.147  0.00  0.00    +0.000 C 
ATOM      7  C   UNL     1      96.567 129.528  65.163  0.00  0.00    +0.000 C 
ATOM      8  C   UNL     1      96.272 130.775  66.045  0.00  0.00    +0.000 C 
ATOM      9  C   UNL     1      95.553 130.395  67.346  0.00  0.00    +0.000 C 
ATOM     10  C   UNL     1      95.164 128.905  67.389  0.00  0.00    +0.000 C 
ATOM     11  C   UNL     1      94.382 128.441  68.605  0.00  0.00    +0.000 C 
ATOM     12  C   UNL     1      94.955 129.047  69.906  0.00  0.00    +0.000 C 
ATOM     13  C   UNL     1      92.928 128.924  68.467  0.00  0.00    +0.000 C 
ATOM     14  O   UNL     1      92.315 128.331  67.335  0.00  0.00    +0.000 OA
ATOM     15  C   UNL     1      92.940 128.747  66.129  0.00  0.00    +0.000 C 
ATOM     16  C   UNL     1      94.456 128.394  66.097  0.00  0.00    +0.000 C 
ATOM     17  C   UNL     1      94.580 126.876  65.945  0.00  0.00    +0.000 C 
ATOM     18  C   UNL     1      94.432 126.119  67.252  0.00  0.00    +0.000 C 
ATOM     19  C   UNL     1      94.542 126.878  68.625  0.00  0.00    +0.000 C 
ATOM     20  C   UNL     1      95.154 129.016  64.925  0.00  0.00    +0.000 C 
ATOM     21  C   UNL     1      94.515 129.286  63.785  0.00  0.00    +0.000 C 
ATOM     22  C   UNL     1      95.243 129.996  62.726  0.00  0.00    +0.000 C 
ATOM     23  C   UNL     1      96.671 129.403  62.597  0.00  0.00    +0.000 C 
ATOM     24  C   UNL     1      96.494 127.855  62.327  0.00  0.00    +0.000 C 
ATOM     25  C   UNL     1      97.388 130.095  61.434  0.00  0.00    +0.000 C 
ENDROOT
BRANCH  18  26
ATOM     26  N   UNL     1      95.231 124.869  67.182  0.00  0.00    +0.000 N 
ATOM     27  N   UNL     1      94.562 123.747  66.791  0.00  0.00    +0.000 NA
ATOM     28  C   UNL     1      95.481 122.806  66.974  0.00  0.00    +0.000 A 
ATOM     29  N   UNL     1      96.709 123.240  67.389  0.00  0.00    +0.000 NA
ATOM     30  C   UNL     1      96.566 124.561  67.438  0.00  0.00    +0.000 A 
BRANCH  30  31
ATOM     31  C   UNL     1      97.720 125.437  67.721  0.00  0.00    +0.000 A 
ATOM     32  C   UNL     1      98.069 126.487  66.868  0.00  0.00    +0.000 A 
ATOM     33  C   UNL     1      99.166 127.298  67.184  0.00  0.00    +0.000 A 
ATOM     34  N   UNL     1      99.961 127.111  68.256  0.00  0.00    +0.000 NA
ATOM     35  C   UNL     1      99.586 126.140  69.088  0.00  0.00    +0.000 A 
ATOM     36  C   UNL     1      98.459 125.363  68.881  0.00  0.00    +0.000 A 
ENDBRANCH  30  31
ENDBRANCH  18  26
BRANCH   1  37
ATOM     37  C   UNL     1      99.735 130.982  60.685  0.00  0.00    +0.000 C 
ATOM     38  C   UNL     1      99.925 131.200  59.166  0.00  0.00    +0.000 C 
BRANCH  37  40
ATOM     39  C   UNL     1     102.330 131.259  60.339  0.00  0.00    +0.000 C 
ATOM     40  C   UNL     1     101.160 131.236  61.317  0.00  0.00    +0.000 C 
ATOM     41  C   UNL     1     101.259 132.365  62.370  0.00  0.00    +0.000 C 
ENDBRANCH  37  40
ENDBRANCH   1  37
BRANCH  25  42
ATOM     42  C   UNL     1      96.407 130.231  60.275  0.00  0.00    +0.000 C 
ATOM     43  O   UNL     1      95.931 129.295  59.646  0.00  0.00    +0.000 OA
BRANCH  42  44
ATOM     44  O   UNL     1      96.227 131.476  59.815  0.00  0.00    +0.000 OA
ATOM     45  H   UNL     1      96.369 131.371  58.850  0.00  0.00    +0.000 HD
ENDBRANCH  42  44
ENDBRANCH  25  42
BRANCH  19  46
ATOM     46  O   UNL     1      93.576 126.425  69.578  0.00  0.00    +0.000 OA
BRANCH  46  47
ATOM     47  C   UNL     1      94.066 125.434  70.466  0.00  0.00    +0.000 C 
BRANCH  47  48
ATOM     48  C   UNL     1      93.783 125.800  71.932  0.00  0.00    +0.000 C 
ATOM     49  C   UNL     1      93.038 124.568  72.496  0.00  0.00    +0.000 C 
BRANCH  48  50
ATOM     50  C   UNL     1      95.093 126.182  72.734  0.00  0.00    +0.000 C 
ATOM     51  C   UNL     1      94.958 127.590  73.349  0.00  0.00    +0.000 C 
ATOM     52  C   UNL     1      95.358 125.185  73.890  0.00  0.00    +0.000 C 
ATOM     53  C   UNL     1      96.368 126.190  71.856  0.00  0.00    +0.000 C 
ENDBRANCH  48  50
BRANCH  48  54
ATOM     54  N   UNL     1      92.802 126.905  71.898  0.00  0.00    +0.000 NA
ATOM     55  H   UNL     1      92.342 127.026  72.781  0.00  0.00    +0.000 HD
ATOM     56  H   UNL     1      93.309 127.783  71.695  0.00  0.00    +0.000 HD
ENDBRANCH  48  54
ENDBRANCH  47  48
ENDBRANCH  46  47
ENDBRANCH  19  46
TORSDOF 11
ENDMDL
MODEL 3
REMARK VINA RESULT:     0.001      5.279     10.561
REMARK INTER + INTRA:          -3.759
REMARK INTER:                   0.000
REMARK INTRA:                  -3.759
REMARK UNBOUND:                -3.761
REMARK  Name = 
REMARK  22 active torsions:
REMARK  status: ('A' for Active; 'I' for Inactive)
REMARK    1  A    between atoms: C_1  and  C_2
REMARK    2  A    between atoms: C_2  and  C_3
REMARK    3  A    between atoms: C_2  and  C_4
REMARK    4  A    between atoms: C_4  and  C_5
REMARK    5  A    between atoms: C_4  and  C_6
REMARK    6  A    between atoms: C_6  and  C_7
REMARK    7  A    between atoms: C_10  and  C_11
REMARK    8  A    between atoms: C_16  and  C_17
REMARK    9  A    between atoms: C_23  and  N_24
REMARK   10  A    between atoms: C_28  and  C_29
REMARK   11  A    between atoms: C_35  and  O_36
REMARK   12  A    between atoms: O_36  and  C_37
REMARK   13  A    between atoms: C_37  and  C_38
REMARK   14  A    between atoms: C_38  and  C_39
REMARK   15  A    between atoms: C_38  and  N_40
REMARK   16  A    between atoms: C_38  and  C_41
REMARK   17  A    between atoms: C_41  and  C_42
REMARK   18  A    between atoms: C_41  and  C_43
REMARK   19  A    between atoms: C_41  and  C_44
REMARK   20  A    between atoms: C_48  and  C_49
REMARK   21  A    between atoms: C_50  and  C_51
REMARK   22  A    between atoms: C_51  and  O_53
REMARK                            x       y       z     vdW  Elec       q    Type
REMARK                         _______ _______ _______ _____ _____    ______ ____
ROOT
ATOM      1  C   UNL     1      93.879 132.931  73.039  0.00  0.00    +0.000 C 
ATOM      2  C   UNL     1      94.966 132.249  73.928  0.00  0.00    +0.000 C 
ATOM      3  C   UNL     1      93.920 132.061  71.684  0.00  0.00    +0.000 C 
ATOM      4  C   UNL     1      94.198 132.734  70.277  0.00  0.00    +0.000 C 
ATOM      5  C   UNL     1      93.944 134.276  70.289  0.00  0.00    +0.000 C 
ATOM      6  C   UNL     1      92.404 134.310  70.386  0.00  0.00    +0.000 C 
ATOM      7  C   UNL     1      94.262 135.088  68.981  0.00  0.00    +0.000 C 
ATOM      8  C   UNL     1      93.156 135.995  68.370  0.00  0.00    +0.000 C 
ATOM      9  C   UNL     1      93.548 136.511  66.979  0.00  0.00    +0.000 C 
ATOM     10  C   UNL     1      94.993 136.137  66.598  0.00  0.00    +0.000 C 
ATOM     11  C   UNL     1      95.504 136.662  65.269  0.00  0.00    +0.000 C 
ATOM     12  C   UNL     1      94.437 136.524  64.161  0.00  0.00    +0.000 C 
ATOM     13  C   UNL     1      95.823 138.160  65.424  0.00  0.00    +0.000 C 
ATOM     14  O   UNL     1      96.864 138.350  66.368  0.00  0.00    +0.000 OA
ATOM     15  C   UNL     1      96.465 137.938  67.668  0.00  0.00    +0.000 C 
ATOM     16  C   UNL     1      96.043 136.440  67.710  0.00  0.00    +0.000 C 
ATOM     17  C   UNL     1      97.307 135.593  67.544  0.00  0.00    +0.000 C 
ATOM     18  C   UNL     1      97.743 135.428  66.099  0.00  0.00    +0.000 C 
ATOM     19  C   UNL     1      96.753 135.772  64.927  0.00  0.00    +0.000 C 
ATOM     20  C   UNL     1      95.428 136.066  69.025  0.00  0.00    +0.000 C 
ATOM     21  C   UNL     1      95.748 136.694  70.159  0.00  0.00    +0.000 C 
ATOM     22  C   UNL     1      95.020 136.342  71.384  0.00  0.00    +0.000 C 
ATOM     23  C   UNL     1      94.864 134.800  71.465  0.00  0.00    +0.000 C 
ATOM     24  C   UNL     1      96.324 134.196  71.389  0.00  0.00    +0.000 C 
ATOM     25  C   UNL     1      94.179 134.443  72.787  0.00  0.00    +0.000 C 
ENDROOT
BRANCH  18  26
ATOM     26  N   UNL     1      98.437 134.124  65.948  0.00  0.00    +0.000 N 
ATOM     27  N   UNL     1      99.796 134.149  66.054  0.00  0.00    +0.000 NA
ATOM     28  C   UNL     1     100.116 132.901  65.728  0.00  0.00    +0.000 A 
ATOM     29  N   UNL     1      99.067 132.058  65.484  0.00  0.00    +0.000 NA
ATOM     30  C   UNL     1      98.003 132.821  65.708  0.00  0.00    +0.000 A 
BRANCH  30  31
ATOM     31  C   UNL     1      96.642 132.248  65.683  0.00  0.00    +0.000 A 
ATOM     32  C   UNL     1      95.762 132.404  66.757  0.00  0.00    +0.000 A 
ATOM     33  C   UNL     1      94.478 131.851  66.683  0.00  0.00    +0.000 A 
ATOM     34  N   UNL     1      94.027 131.123  65.642  0.00  0.00    +0.000 NA
ATOM     35  C   UNL     1      94.856 131.028  64.604  0.00  0.00    +0.000 A 
ATOM     36  C   UNL     1      96.104 131.629  64.577  0.00  0.00    +0.000 A 
ENDBRANCH  30  31
ENDBRANCH  18  26
BRANCH   1  37
ATOM     37  C   UNL     1      92.455 132.776  73.839  0.00  0.00    +0.000 C 
ATOM     38  C   UNL     1      92.502 132.633  75.377  0.00  0.00    +0.000 C 
BRANCH  37  40
ATOM     39  C   UNL     1      91.044 130.621  74.382  0.00  0.00    +0.000 C 
ATOM     40  C   UNL     1      91.419 131.686  73.357  0.00  0.00    +0.000 C 
ATOM     41  C   UNL     1      90.187 132.199  72.574  0.00  0.00    +0.000 C 
ENDBRANCH  37  40
ENDBRANCH   1  37
BRANCH  25  42
ATOM     42  C   UNL     1      94.782 135.304  73.890  0.00  0.00    +0.000 C 
ATOM     43  O   UNL     1      95.941 135.238  74.277  0.00  0.00    +0.000 OA
BRANCH  42  44
ATOM     44  O   UNL     1      93.908 136.035  74.595  0.00  0.00    +0.000 OA
ATOM     45  H   UNL     1      94.275 135.992  75.504  0.00  0.00    +0.000 HD
ENDBRANCH  42  44
ENDBRANCH  25  42
BRANCH  19  46
ATOM     46  O   UNL     1      97.400 136.450  63.847  0.00  0.00    +0.000 OA
BRANCH  46  47
ATOM     47  C   UNL     1      97.819 135.592  62.799  0.00  0.00    +0.000 C 
BRANCH  47  48
ATOM     48  C   UNL     1      97.334 136.094  61.429  0.00  0.00    +0.000 C 
ATOM     49  C   UNL     1      98.620 136.182  60.576  0.00  0.00    +0.000 C 
BRANCH  48  50
ATOM     50  C   UNL     1      96.208 135.175  60.802  0.00  0.00    +0.000 C 
ATOM     51  C   UNL     1      94.943 136.005  60.494  0.00  0.00    +0.000 C 
ATOM     52  C   UNL     1      96.681 134.527  59.477  0.00  0.00    +0.000 C 
ATOM     53  C   UNL     1      95.774 134.017  61.732  0.00  0.00    +0.000 C 
ENDBRANCH  48  50
BRANCH  48  54
ATOM     54  N   UNL     1      96.874 137.483  61.640  0.00  0.00    +0.000 NA
ATOM     55  H   UNL     1      95.956 137.517  62.043  0.00  0.00    +0.000 HD
ATOM     56  H   UNL     1      97.517 137.941  62.306  0.00  0.00    +0.000 HD
ENDBRANCH  48  54
ENDBRANCH  47  48
ENDBRANCH  46  47
ENDBRANCH  19  46
TORSDOF 11
ENDMDL
MODEL 4
REMARK VINA RESULT:     0.001      7.250      9.207
REMARK INTER + INTRA:          -3.759
REMARK INTER:                   0.000
REMARK INTRA:                  -3.759
REMARK UNBOUND:                -3.761
REMARK  Name = 
REMARK  22 active torsions:
REMARK  status: ('A' for Active; 'I' for Inactive)
REMARK    1  A    between atoms: C_1  and  C_2
REMARK    2  A    between atoms: C_2  and  C_3
REMARK    3  A    between atoms: C_2  and  C_4
REMARK    4  A    between atoms: C_4  and  C_5
REMARK    5  A    between atoms: C_4  and  C_6
REMARK    6  A    between atoms: C_6  and  C_7
REMARK    7  A    between atoms: C_10  and  C_11
REMARK    8  A    between atoms: C_16  and  C_17
REMARK    9  A    between atoms: C_23  and  N_24
REMARK   10  A    between atoms: C_28  and  C_29
REMARK   11  A    between atoms: C_35  and  O_36
REMARK   12  A    between atoms: O_36  and  C_37
REMARK   13  A    between atoms: C_37  and  C_38
REMARK   14  A    between atoms: C_38  and  C_39
REMARK   15  A    between atoms: C_38  and  N_40
REMARK   16  A    between atoms: C_38  and  C_41
REMARK   17  A    between atoms: C_41  and  C_42
REMARK   18  A    between atoms: C_41  and  C_43
REMARK   19  A    between atoms: C_41  and  C_44
REMARK   20  A    between atoms: C_48  and  C_49
REMARK   21  A    between atoms: C_50  and  C_51
REMARK   22  A    between atoms: C_51  and  O_53
REMARK                            x       y       z     vdW  Elec       q    Type
REMARK                         _______ _______ _______ _____ _____    ______ ____
ROOT
ATOM      1  C   UNL     1      92.351 141.619  58.746  0.00  0.00    +0.000 C 
ATOM      2  C   UNL     1      92.406 141.671  60.305  0.00  0.00    +0.000 C 
ATOM      3  C   UNL     1      91.646 140.201  58.454  0.00  0.00    +0.000 C 
ATOM      4  C   UNL     1      92.348 139.095  57.562  0.00  0.00    +0.000 C 
ATOM      5  C   UNL     1      93.479 139.684  56.659  0.00  0.00    +0.000 C 
ATOM      6  C   UNL     1      92.642 140.471  55.630  0.00  0.00    +0.000 C 
ATOM      7  C   UNL     1      94.320 138.685  55.783  0.00  0.00    +0.000 C 
ATOM      8  C   UNL     1      94.443 138.943  54.254  0.00  0.00    +0.000 C 
ATOM      9  C   UNL     1      95.079 137.752  53.525  0.00  0.00    +0.000 C 
ATOM     10  C   UNL     1      95.580 136.667  54.497  0.00  0.00    +0.000 C 
ATOM     11  C   UNL     1      96.292 135.477  53.880  0.00  0.00    +0.000 C 
ATOM     12  C   UNL     1      95.569 134.987  52.606  0.00  0.00    +0.000 C 
ATOM     13  C   UNL     1      97.711 135.912  53.472  0.00  0.00    +0.000 C 
ATOM     14  O   UNL     1      98.460 136.292  54.613  0.00  0.00    +0.000 OA
ATOM     15  C   UNL     1      97.906 137.441  55.239  0.00  0.00    +0.000 C 
ATOM     16  C   UNL     1      96.430 137.218  55.682  0.00  0.00    +0.000 C 
ATOM     17  C   UNL     1      96.440 136.253  56.870  0.00  0.00    +0.000 C 
ATOM     18  C   UNL     1      96.538 134.792  56.468  0.00  0.00    +0.000 C 
ATOM     19  C   UNL     1      96.256 134.358  54.983  0.00  0.00    +0.000 C 
ATOM     20  C   UNL     1      95.784 138.488  56.148  0.00  0.00    +0.000 C 
ATOM     21  C   UNL     1      96.492 139.484  56.686  0.00  0.00    +0.000 C 
ATOM     22  C   UNL     1      95.801 140.736  57.014  0.00  0.00    +0.000 C 
ATOM     23  C   UNL     1      94.439 140.412  57.685  0.00  0.00    +0.000 C 
ATOM     24  C   UNL     1      94.760 139.508  58.941  0.00  0.00    +0.000 C 
ATOM     25  C   UNL     1      93.768 141.725  58.097  0.00  0.00    +0.000 C 
ENDROOT
BRANCH  18  26
ATOM     26  N   UNL     1      95.850 133.961  57.487  0.00  0.00    +0.000 N 
ATOM     27  N   UNL     1      96.635 133.443  58.473  0.00  0.00    +0.000 NA
ATOM     28  C   UNL     1      95.781 132.650  59.112  0.00  0.00    +0.000 A 
ATOM     29  N   UNL     1      94.493 132.666  58.655  0.00  0.00    +0.000 NA
ATOM     30  C   UNL     1      94.526 133.564  57.676  0.00  0.00    +0.000 A 
BRANCH  30  31
ATOM     31  C   UNL     1      93.287 133.986  56.994  0.00  0.00    +0.000 A 
ATOM     32  C   UNL     1      92.929 135.333  56.891  0.00  0.00    +0.000 A 
ATOM     33  C   UNL     1      91.750 135.685  56.226  0.00  0.00    +0.000 A 
ATOM     34  N   UNL     1      90.884 134.796  55.697  0.00  0.00    +0.000 NA
ATOM     35  C   UNL     1      91.264 133.521  55.755  0.00  0.00    +0.000 A 
ATOM     36  C   UNL     1      92.463 133.115  56.318  0.00  0.00    +0.000 A 
ENDBRANCH  30  31
ENDBRANCH  18  26
BRANCH   1  37
ATOM     37  C   UNL     1      91.428 142.889  58.267  0.00  0.00    +0.000 C 
ATOM     38  C   UNL     1      91.348 144.117  59.202  0.00  0.00    +0.000 C 
BRANCH  37  40
ATOM     39  C   UNL     1      88.857 143.337  58.613  0.00  0.00    +0.000 C 
ATOM     40  C   UNL     1      89.940 142.625  57.809  0.00  0.00    +0.000 C 
ATOM     41  C   UNL     1      89.665 142.676  56.287  0.00  0.00    +0.000 C 
ENDBRANCH  37  40
ENDBRANCH   1  37
BRANCH  25  42
ATOM     42  C   UNL     1      94.828 142.638  58.703  0.00  0.00    +0.000 C 
ATOM     43  O   UNL     1      95.427 142.420  59.747  0.00  0.00    +0.000 OA
BRANCH  42  44
ATOM     44  O   UNL     1      94.946 143.844  58.131  0.00  0.00    +0.000 OA
ATOM     45  H   UNL     1      94.011 144.114  58.002  0.00  0.00    +0.000 HD
ENDBRANCH  42  44
ENDBRANCH  25  42
BRANCH  19  46
ATOM     46  O   UNL     1      97.173 133.362  54.521  0.00  0.00    +0.000 OA
BRANCH  46  47
ATOM     47  C   UNL     1      96.691 132.035  54.651  0.00  0.00    +0.000 C 
BRANCH  47  48
ATOM     48  C   UNL     1      96.822 131.255  53.333  0.00  0.00    +0.000 C 
ATOM     49  C   UNL     1      97.612 129.983  53.717  0.00  0.00    +0.000 C 
BRANCH  48  50
ATOM     50  C   UNL     1      95.423 130.961  52.653  0.00  0.00    +0.000 C 
ATOM     51  C   UNL     1      95.393 131.523  51.215  0.00  0.00    +0.000 C 
ATOM     52  C   UNL     1      95.143 129.440  52.571  0.00  0.00    +0.000 C 
ATOM     53  C   UNL     1      94.229 131.592  53.410  0.00  0.00    +0.000 C 
ENDBRANCH  48  50
BRANCH  48  54
ATOM     54  N   UNL     1      97.710 132.057  52.467  0.00  0.00    +0.000 NA
ATOM     55  H   UNL     1      97.578 131.847  51.495  0.00  0.00    +0.000 HD
ATOM     56  H   UNL     1      97.478 133.055  52.598  0.00  0.00    +0.000 HD
ENDBRANCH  48  54
ENDBRANCH  47  48
ENDBRANCH  46  47
ENDBRANCH  19  46
TORSDOF 11
ENDMDL
MODEL 5
REMARK VINA RESULT:     0.002      7.573     11.740
REMARK INTER + INTRA:          -3.757
REMARK INTER:                   0.000
REMARK INTRA:                  -3.757
REMARK UNBOUND:                -3.761
REMARK  Name = 
REMARK  22 active torsions:
REMARK  status: ('A' for Active; 'I' for Inactive)
REMARK    1  A    between atoms: C_1  and  C_2
REMARK    2  A    between atoms: C_2  and  C_3
REMARK    3  A    between atoms: C_2  and  C_4
REMARK    4  A    between atoms: C_4  and  C_5
REMARK    5  A    between atoms: C_4  and  C_6
REMARK    6  A    between atoms: C_6  and  C_7
REMARK    7  A    between atoms: C_10  and  C_11
REMARK    8  A    between atoms: C_16  and  C_17
REMARK    9  A    between atoms: C_23  and  N_24
REMARK   10  A    between atoms: C_28  and  C_29
REMARK   11  A    between atoms: C_35  and  O_36
REMARK   12  A    between atoms: O_36  and  C_37
REMARK   13  A    between atoms: C_37  and  C_38
REMARK   14  A    between atoms: C_38  and  C_39
REMARK   15  A    between atoms: C_38  and  N_40
REMARK   16  A    between atoms: C_38  and  C_41
REMARK   17  A    between atoms: C_41  and  C_42
REMARK   18  A    between atoms: C_41  and  C_43
REMARK   19  A    between atoms: C_41  and  C_44
REMARK   20  A    between atoms: C_48  and  C_49
REMARK   21  A    between atoms: C_50  and  C_51
REMARK   22  A    between atoms: C_51  and  O_53
REMARK                            x       y       z     vdW  Elec       q    Type
REMARK                         _______ _______ _______ _____ _____    ______ ____
ROOT
ATOM      1  C   UNL     1      91.756 132.195  66.392  0.00  0.00    +0.000 C 
ATOM      2  C   UNL     1      91.239 131.017  65.508  0.00  0.00    +0.000 C 
ATOM      3  C   UNL     1      92.964 132.802  65.517  0.00  0.00    +0.000 C 
ATOM      4  C   UNL     1      94.433 132.915  66.100  0.00  0.00    +0.000 C 
ATOM      5  C   UNL     1      94.465 132.848  67.662  0.00  0.00    +0.000 C 
ATOM      6  C   UNL     1      93.849 134.217  68.018  0.00  0.00    +0.000 C 
ATOM      7  C   UNL     1      95.866 132.862  68.374  0.00  0.00    +0.000 C 
ATOM      8  C   UNL     1      96.136 133.918  69.485  0.00  0.00    +0.000 C 
ATOM      9  C   UNL     1      97.615 133.950  69.891  0.00  0.00    +0.000 C 
ATOM     10  C   UNL     1      98.435 132.832  69.218  0.00  0.00    +0.000 C 
ATOM     11  C   UNL     1      99.898 132.733  69.610  0.00  0.00    +0.000 C 
ATOM     12  C   UNL     1     100.557 134.128  69.684  0.00  0.00    +0.000 C 
ATOM     13  C   UNL     1      99.989 132.099  71.009  0.00  0.00    +0.000 C 
ATOM     14  O   UNL     1      99.478 130.776  70.988  0.00  0.00    +0.000 OA
ATOM     15  C   UNL     1      98.091 130.762  70.684  0.00  0.00    +0.000 C 
ATOM     16  C   UNL     1      97.780 131.420  69.309  0.00  0.00    +0.000 C 
ATOM     17  C   UNL     1      98.297 130.484  68.214  0.00  0.00    +0.000 C 
ATOM     18  C   UNL     1      99.784 130.625  67.944  0.00  0.00    +0.000 C 
ATOM     19  C   UNL     1     100.571 131.880  68.474  0.00  0.00    +0.000 C 
ATOM     20  C   UNL     1      96.307 131.592  69.086  0.00  0.00    +0.000 C 
ATOM     21  C   UNL     1      95.409 130.778  69.647  0.00  0.00    +0.000 C 
ATOM     22  C   UNL     1      93.984 131.080  69.469  0.00  0.00    +0.000 C 
ATOM     23  C   UNL     1      93.724 131.490  67.995  0.00  0.00    +0.000 C 
ATOM     24  C   UNL     1      94.244 130.295  67.098  0.00  0.00    +0.000 C 
ATOM     25  C   UNL     1      92.223 131.719  67.804  0.00  0.00    +0.000 C 
ENDROOT
BRANCH  18  26
ATOM     26  N   UNL     1     100.053 130.293  66.523  0.00  0.00    +0.000 N 
ATOM     27  N   UNL     1     100.423 129.007  66.263  0.00  0.00    +0.000 NA
ATOM     28  C   UNL     1     100.732 129.068  64.973  0.00  0.00    +0.000 A 
ATOM     29  N   UNL     1     100.528 130.276  64.365  0.00  0.00    +0.000 NA
ATOM     30  C   UNL     1     100.019 131.025  65.336  0.00  0.00    +0.000 A 
BRANCH  30  31
ATOM     31  C   UNL     1      99.527 132.390  65.060  0.00  0.00    +0.000 A 
ATOM     32  C   UNL     1      98.234 132.787  65.411  0.00  0.00    +0.000 A 
ATOM     33  C   UNL     1      97.815 134.094  65.137  0.00  0.00    +0.000 A 
ATOM     34  N   UNL     1      98.572 135.015  64.506  0.00  0.00    +0.000 NA
ATOM     35  C   UNL     1      99.819 134.640  64.226  0.00  0.00    +0.000 A 
ATOM     36  C   UNL     1     100.323 133.392  64.553  0.00  0.00    +0.000 A 
ENDBRANCH  30  31
ENDBRANCH  18  26
BRANCH   1  37
ATOM     37  C   UNL     1      90.506 133.247  66.548  0.00  0.00    +0.000 C 
ATOM     38  C   UNL     1      89.071 132.688  66.418  0.00  0.00    +0.000 C 
BRANCH  37  40
ATOM     39  C   UNL     1      89.331 134.757  64.740  0.00  0.00    +0.000 C 
ATOM     40  C   UNL     1      90.509 134.573  65.691  0.00  0.00    +0.000 C 
ATOM     41  C   UNL     1      90.862 135.881  66.440  0.00  0.00    +0.000 C 
ENDBRANCH  37  40
ENDBRANCH   1  37
BRANCH  25  42
ATOM     42  C   UNL     1      91.470 130.613  68.534  0.00  0.00    +0.000 C 
ATOM     43  O   UNL     1      91.497 129.428  68.230  0.00  0.00    +0.000 OA
BRANCH  42  44
ATOM     44  O   UNL     1      90.575 131.025  69.442  0.00  0.00    +0.000 OA
ATOM     45  H   UNL     1      90.235 131.856  69.047  0.00  0.00    +0.000 HD
ENDBRANCH  42  44
ENDBRANCH  25  42
BRANCH  19  46
ATOM     46  O   UNL     1     101.860 131.539  68.989  0.00  0.00    +0.000 OA
BRANCH  46  47
ATOM     47  C   UNL     1     102.912 131.690  68.050  0.00  0.00    +0.000 C 
BRANCH  47  48
ATOM     48  C   UNL     1     104.069 132.522  68.628  0.00  0.00    +0.000 C 
ATOM     49  C   UNL     1     105.316 131.629  68.435  0.00  0.00    +0.000 C 
BRANCH  48  50
ATOM     50  C   UNL     1     104.192 133.951  67.957  0.00  0.00    +0.000 C 
ATOM     51  C   UNL     1     104.116 135.058  69.028  0.00  0.00    +0.000 C 
ATOM     52  C   UNL     1     105.539 134.109  67.209  0.00  0.00    +0.000 C 
ATOM     53  C   UNL     1     103.076 134.241  66.924  0.00  0.00    +0.000 C 
ENDBRANCH  48  50
BRANCH  48  54
ATOM     54  N   UNL     1     103.831 132.604  70.084  0.00  0.00    +0.000 NA
ATOM     55  H   UNL     1     104.578 133.073  70.561  0.00  0.00    +0.000 HD
ATOM     56  H   UNL     1     102.972 133.156  70.242  0.00  0.00    +0.000 HD
ENDBRANCH  48  54
ENDBRANCH  47  48
ENDBRANCH  46  47
ENDBRANCH  19  46
TORSDOF 11
ENDMDL
MODEL 6
REMARK VINA RESULT:     0.003      6.045      9.265
REMARK INTER + INTRA:          -3.757
REMARK INTER:                   0.000
REMARK INTRA:                  -3.757
REMARK UNBOUND:                -3.761
REMARK  Name = 
REMARK  22 active torsions:
REMARK  status: ('A' for Active; 'I' for Inactive)
REMARK    1  A    between atoms: C_1  and  C_2
REMARK    2  A    between atoms: C_2  and  C_3
REMARK    3  A    between atoms: C_2  and  C_4
REMARK    4  A    between atoms: C_4  and  C_5
REMARK    5  A    between atoms: C_4  and  C_6
REMARK    6  A    between atoms: C_6  and  C_7
REMARK    7  A    between atoms: C_10  and  C_11
REMARK    8  A    between atoms: C_16  and  C_17
REMARK    9  A    between atoms: C_23  and  N_24
REMARK   10  A    between atoms: C_28  and  C_29
REMARK   11  A    between atoms: C_35  and  O_36
REMARK   12  A    between atoms: O_36  and  C_37
REMARK   13  A    between atoms: C_37  and  C_38
REMARK   14  A    between atoms: C_38  and  C_39
REMARK   15  A    between atoms: C_38  and  N_40
REMARK   16  A    between atoms: C_38  and  C_41
REMARK   17  A    between atoms: C_41  and  C_42
REMARK   18  A    between atoms: C_41  and  C_43
REMARK   19  A    between atoms: C_41  and  C_44
REMARK   20  A    between atoms: C_48  and  C_49
REMARK   21  A    between atoms: C_50  and  C_51
REMARK   22  A    between atoms: C_51  and  O_53
REMARK                            x       y       z     vdW  Elec       q    Type
REMARK                         _______ _______ _______ _____ _____    ______ ____
ROOT
ATOM      1  C   UNL     1     100.635 137.206  63.948  0.00  0.00    +0.000 C 
ATOM      2  C   UNL     1     101.732 137.338  65.051  0.00  0.00    +0.000 C 
ATOM      3  C   UNL     1      99.350 136.695  64.774  0.00  0.00    +0.000 C 
ATOM      4  C   UNL     1      98.606 135.348  64.398  0.00  0.00    +0.000 C 
ATOM      5  C   UNL     1      98.924 134.873  62.944  0.00  0.00    +0.000 C 
ATOM      6  C   UNL     1      98.154 135.929  62.124  0.00  0.00    +0.000 C 
ATOM      7  C   UNL     1      98.322 133.502  62.465  0.00  0.00    +0.000 C 
ATOM      8  C   UNL     1      97.495 133.462  61.147  0.00  0.00    +0.000 C 
ATOM      9  C   UNL     1      96.782 132.116  60.964  0.00  0.00    +0.000 C 
ATOM     10  C   UNL     1      97.180 131.088  62.040  0.00  0.00    +0.000 C 
ATOM     11  C   UNL     1      96.584 129.698  61.907  0.00  0.00    +0.000 C 
ATOM     12  C   UNL     1      95.088 129.762  61.528  0.00  0.00    +0.000 C 
ATOM     13  C   UNL     1      97.319 128.955  60.778  0.00  0.00    +0.000 C 
ATOM     14  O   UNL     1      98.688 128.785  61.106  0.00  0.00    +0.000 OA
ATOM     15  C   UNL     1      99.357 130.035  61.200  0.00  0.00    +0.000 C 
ATOM     16  C   UNL     1      98.718 130.969  62.268  0.00  0.00    +0.000 C 
ATOM     17  C   UNL     1      99.044 130.393  63.648  0.00  0.00    +0.000 C 
ATOM     18  C   UNL     1      98.115 129.271  64.075  0.00  0.00    +0.000 C 
ATOM     19  C   UNL     1      96.752 129.041  63.324  0.00  0.00    +0.000 C 
ATOM     20  C   UNL     1      99.289 132.354  62.219  0.00  0.00    +0.000 C 
ATOM     21  C   UNL     1     100.533 132.590  61.796  0.00  0.00    +0.000 C 
ATOM     22  C   UNL     1     100.978 133.983  61.673  0.00  0.00    +0.000 C 
ATOM     23  C   UNL     1     100.504 134.786  62.914  0.00  0.00    +0.000 C 
ATOM     24  C   UNL     1     101.081 134.036  64.182  0.00  0.00    +0.000 C 
ATOM     25  C   UNL     1     101.047 136.214  62.814  0.00  0.00    +0.000 C 
ENDROOT
BRANCH  18  26
ATOM     26  N   UNL     1      98.002 129.271  65.556  0.00  0.00    +0.000 N 
ATOM     27  N   UNL     1      98.847 128.436  66.224  0.00  0.00    +0.000 NA
ATOM     28  C   UNL     1      98.407 128.547  67.473  0.00  0.00    +0.000 A 
ATOM     29  N   UNL     1      97.388 129.438  67.671  0.00  0.00    +0.000 NA
ATOM     30  C   UNL     1      97.193 129.954  66.463  0.00  0.00    +0.000 A 
BRANCH  30  31
ATOM     31  C   UNL     1      96.250 131.071  66.261  0.00  0.00    +0.000 A 
ATOM     32  C   UNL     1      96.642 132.257  65.634  0.00  0.00    +0.000 A 
ATOM     33  C   UNL     1      95.709 133.285  65.456  0.00  0.00    +0.000 A 
ATOM     34  N   UNL     1      94.435 133.235  65.893  0.00  0.00    +0.000 NA
ATOM     35  C   UNL     1      94.060 132.080  66.440  0.00  0.00    +0.000 A 
ATOM     36  C   UNL     1      94.908 130.992  66.562  0.00  0.00    +0.000 A 
ENDBRANCH  30  31
ENDBRANCH  18  26
BRANCH   1  37
ATOM     37  C   UNL     1     100.420 138.706  63.319  0.00  0.00    +0.000 C 
ATOM     38  C   UNL     1     101.606 139.695  63.389  0.00  0.00    +0.000 C 
BRANCH  37  40
ATOM     39  C   UNL     1      99.446 140.889  64.421  0.00  0.00    +0.000 C 
ATOM     40  C   UNL     1      99.157 139.547  63.757  0.00  0.00    +0.000 C 
ATOM     41  C   UNL     1      97.999 139.641  62.734  0.00  0.00    +0.000 C 
ENDBRANCH  37  40
ENDBRANCH   1  37
BRANCH  25  42
ATOM     42  C   UNL     1     102.493 136.147  62.335  0.00  0.00    +0.000 C 
ATOM     43  O   UNL     1     103.421 135.664  62.971  0.00  0.00    +0.000 OA
BRANCH  42  44
ATOM     44  O   UNL     1     102.767 136.848  61.227  0.00  0.00    +0.000 OA
ATOM     45  H   UNL     1     102.046 137.514  61.209  0.00  0.00    +0.000 HD
ENDBRANCH  42  44
ENDBRANCH  25  42
BRANCH  19  46
ATOM     46  O   UNL     1      96.470 127.654  63.118  0.00  0.00    +0.000 OA
BRANCH  46  47
ATOM     47  C   UNL     1      95.635 127.084  64.113  0.00  0.00    +0.000 C 
BRANCH  47  48
ATOM     48  C   UNL     1      94.446 126.333  63.491  0.00  0.00    +0.000 C 
ATOM     49  C   UNL     1      94.522 124.919  64.109  0.00  0.00    +0.000 C 
BRANCH  48  50
ATOM     50  C   UNL     1      93.064 127.067  63.732  0.00  0.00    +0.000 C 
ATOM     51  C   UNL     1      92.363 127.351  62.386  0.00  0.00    +0.000 C 
ATOM     52  C   UNL     1      92.107 126.201  64.589  0.00  0.00    +0.000 C 
ATOM     53  C   UNL     1      93.209 128.423  64.463  0.00  0.00    +0.000 C 
ENDBRANCH  48  50
BRANCH  48  54
ATOM     54  N   UNL     1      94.761 126.183  62.056  0.00  0.00    +0.000 NA
ATOM     55  H   UNL     1      94.953 127.065  61.619  0.00  0.00    +0.000 HD
ATOM     56  H   UNL     1      95.614 125.607  61.968  0.00  0.00    +0.000 HD
ENDBRANCH  48  54
ENDBRANCH  47  48
ENDBRANCH  46  47
ENDBRANCH  19  46
TORSDOF 11
ENDMDL
MODEL 7
REMARK VINA RESULT:     0.003      5.042      9.717
REMARK INTER + INTRA:          -3.756
REMARK INTER:                   0.000
REMARK INTRA:                  -3.756
REMARK UNBOUND:                -3.761
REMARK  Name = 
REMARK  22 active torsions:
REMARK  status: ('A' for Active; 'I' for Inactive)
REMARK    1  A    between atoms: C_1  and  C_2
REMARK    2  A    between atoms: C_2  and  C_3
REMARK    3  A    between atoms: C_2  and  C_4
REMARK    4  A    between atoms: C_4  and  C_5
REMARK    5  A    between atoms: C_4  and  C_6
REMARK    6  A    between atoms: C_6  and  C_7
REMARK    7  A    between atoms: C_10  and  C_11
REMARK    8  A    between atoms: C_16  and  C_17
REMARK    9  A    between atoms: C_23  and  N_24
REMARK   10  A    between atoms: C_28  and  C_29
REMARK   11  A    between atoms: C_35  and  O_36
REMARK   12  A    between atoms: O_36  and  C_37
REMARK   13  A    between atoms: C_37  and  C_38
REMARK   14  A    between atoms: C_38  and  C_39
REMARK   15  A    between atoms: C_38  and  N_40
REMARK   16  A    between atoms: C_38  and  C_41
REMARK   17  A    between atoms: C_41  and  C_42
REMARK   18  A    between atoms: C_41  and  C_43
REMARK   19  A    between atoms: C_41  and  C_44
REMARK   20  A    between atoms: C_48  and  C_49
REMARK   21  A    between atoms: C_50  and  C_51
REMARK   22  A    between atoms: C_51  and  O_53
REMARK                            x       y       z     vdW  Elec       q    Type
REMARK                         _______ _______ _______ _____ _____    ______ ____
ROOT
ATOM      1  C   UNL     1      98.279 140.553  72.125  0.00  0.00    +0.000 C 
ATOM      2  C   UNL     1      97.421 139.412  72.756  0.00  0.00    +0.000 C 
ATOM      3  C   UNL     1      97.169 141.560  71.537  0.00  0.00    +0.000 C 
ATOM      4  C   UNL     1      97.146 141.963  70.005  0.00  0.00    +0.000 C 
ATOM      5  C   UNL     1      98.512 141.697  69.294  0.00  0.00    +0.000 C 
ATOM      6  C   UNL     1      99.383 142.803  69.926  0.00  0.00    +0.000 C 
ATOM      7  C   UNL     1      98.608 141.971  67.749  0.00  0.00    +0.000 C 
ATOM      8  C   UNL     1      99.737 142.901  67.218  0.00  0.00    +0.000 C 
ATOM      9  C   UNL     1      99.533 143.254  65.739  0.00  0.00    +0.000 C 
ATOM     10  C   UNL     1      98.359 142.484  65.106  0.00  0.00    +0.000 C 
ATOM     11  C   UNL     1      98.118 142.708  63.624  0.00  0.00    +0.000 C 
ATOM     12  C   UNL     1      98.248 144.202  63.253  0.00  0.00    +0.000 C 
ATOM     13  C   UNL     1      99.186 141.935  62.831  0.00  0.00    +0.000 C 
ATOM     14  O   UNL     1      99.063 140.542  63.061  0.00  0.00    +0.000 OA
ATOM     15  C   UNL     1      99.326 140.215  64.418  0.00  0.00    +0.000 C 
ATOM     16  C   UNL     1      98.370 140.952  65.400  0.00  0.00    +0.000 C 
ATOM     17  C   UNL     1      96.977 140.335  65.248  0.00  0.00    +0.000 C 
ATOM     18  C   UNL     1      96.192 140.887  64.071  0.00  0.00    +0.000 C 
ATOM     19  C   UNL     1      96.647 142.217  63.367  0.00  0.00    +0.000 C 
ATOM     20  C   UNL     1      98.782 140.771  66.830  0.00  0.00    +0.000 C 
ATOM     21  C   UNL     1      99.444 139.687  67.242  0.00  0.00    +0.000 C 
ATOM     22  C   UNL     1      99.907 139.637  68.633  0.00  0.00    +0.000 C 
ATOM     23  C   UNL     1      98.786 140.162  69.569  0.00  0.00    +0.000 C 
ATOM     24  C   UNL     1      97.510 139.272  69.285  0.00  0.00    +0.000 C 
ATOM     25  C   UNL     1      99.251 140.025  71.021  0.00  0.00    +0.000 C 
ENDROOT
BRANCH  18  26
ATOM     26  N   UNL     1      94.742 140.829  64.386  0.00  0.00    +0.000 N 
ATOM     27  N   UNL     1      94.073 139.726  63.945  0.00  0.00    +0.000 NA
ATOM     28  C   UNL     1      92.815 140.038  64.237  0.00  0.00    +0.000 A 
ATOM     29  N   UNL     1      92.627 141.225  64.890  0.00  0.00    +0.000 NA
ATOM     30  C   UNL     1      93.864 141.682  65.054  0.00  0.00    +0.000 A 
BRANCH  30  31
ATOM     31  C   UNL     1      94.121 142.900  65.847  0.00  0.00    +0.000 A 
ATOM     32  C   UNL     1      95.025 142.904  66.913  0.00  0.00    +0.000 A 
ATOM     33  C   UNL     1      95.243 144.086  67.630  0.00  0.00    +0.000 A 
ATOM     34  N   UNL     1      94.598 145.246  67.390  0.00  0.00    +0.000 NA
ATOM     35  C   UNL     1      93.780 145.243  66.338  0.00  0.00    +0.000 A 
ATOM     36  C   UNL     1      93.591 144.131  65.534  0.00  0.00    +0.000 A 
ENDBRANCH  30  31
ENDBRANCH  18  26
BRANCH   1  37
ATOM     37  C   UNL     1      99.145 141.220  73.349  0.00  0.00    +0.000 C 
ATOM     38  C   UNL     1      99.417 140.352  74.599  0.00  0.00    +0.000 C 
BRANCH  37  40
ATOM     39  C   UNL     1      98.285 142.659  75.379  0.00  0.00    +0.000 C 
ATOM     40  C   UNL     1      98.711 142.629  73.915  0.00  0.00    +0.000 C 
ATOM     41  C   UNL     1      99.614 143.831  73.547  0.00  0.00    +0.000 C 
ENDBRANCH  37  40
ENDBRANCH   1  37
BRANCH  25  42
ATOM     42  C   UNL     1      99.940 138.675  71.180  0.00  0.00    +0.000 C 
ATOM     43  O   UNL     1      99.388 137.588  71.074  0.00  0.00    +0.000 OA
BRANCH  42  44
ATOM     44  O   UNL     1     101.190 138.718  71.662  0.00  0.00    +0.000 OA
ATOM     45  H   UNL     1     101.659 138.063  71.103  0.00  0.00    +0.000 HD
ENDBRANCH  42  44
ENDBRANCH  25  42
BRANCH  19  46
ATOM     46  O   UNL     1      96.529 142.149  61.943  0.00  0.00    +0.000 OA
BRANCH  46  47
ATOM     47  C   UNL     1      95.318 142.690  61.442  0.00  0.00    +0.000 C 
BRANCH  47  48
ATOM     48  C   UNL     1      95.575 143.703  60.315  0.00  0.00    +0.000 C 
ATOM     49  C   UNL     1      94.716 143.191  59.136  0.00  0.00    +0.000 C 
BRANCH  48  50
ATOM     50  C   UNL     1      95.255 145.192  60.744  0.00  0.00    +0.000 C 
ATOM     51  C   UNL     1      96.494 146.090  60.544  0.00  0.00    +0.000 C 
ATOM     52  C   UNL     1      94.100 145.787  59.901  0.00  0.00    +0.000 C 
ATOM     53  C   UNL     1      94.834 145.325  62.227  0.00  0.00    +0.000 C 
ENDBRANCH  48  50
BRANCH  48  54
ATOM     54  N   UNL     1      96.986 143.524  59.915  0.00  0.00    +0.000 NA
ATOM     55  H   UNL     1      97.076 142.938  59.107  0.00  0.00    +0.000 HD
ATOM     56  H   UNL     1      97.374 144.449  59.667  0.00  0.00    +0.000 HD
ENDBRANCH  48  54
ENDBRANCH  47  48
ENDBRANCH  46  47
ENDBRANCH  19  46
TORSDOF 11
ENDMDL
MODEL 8
REMARK VINA RESULT:     0.004      4.813      8.814
REMARK INTER + INTRA:          -3.755
REMARK INTER:                   0.000
REMARK INTRA:                  -3.755
REMARK UNBOUND:                -3.761
REMARK  Name = 
REMARK  22 active torsions:
REMARK  status: ('A' for Active; 'I' for Inactive)
REMARK    1  A    between atoms: C_1  and  C_2
REMARK    2  A    between atoms: C_2  and  C_3
REMARK    3  A    between atoms: C_2  and  C_4
REMARK    4  A    between atoms: C_4  and  C_5
REMARK    5  A    between atoms: C_4  and  C_6
REMARK    6  A    between atoms: C_6  and  C_7
REMARK    7  A    between atoms: C_10  and  C_11
REMARK    8  A    between atoms: C_16  and  C_17
REMARK    9  A    between atoms: C_23  and  N_24
REMARK   10  A    between atoms: C_28  and  C_29
REMARK   11  A    between atoms: C_35  and  O_36
REMARK   12  A    between atoms: O_36  and  C_37
REMARK   13  A    between atoms: C_37  and  C_38
REMARK   14  A    between atoms: C_38  and  C_39
REMARK   15  A    between atoms: C_38  and  N_40
REMARK   16  A    between atoms: C_38  and  C_41
REMARK   17  A    between atoms: C_41  and  C_42
REMARK   18  A    between atoms: C_41  and  C_43
REMARK   19  A    between atoms: C_41  and  C_44
REMARK   20  A    between atoms: C_48  and  C_49
REMARK   21  A    between atoms: C_50  and  C_51
REMARK   22  A    between atoms: C_51  and  O_53
REMARK                            x       y       z     vdW  Elec       q    Type
REMARK                         _______ _______ _______ _____ _____    ______ ____
ROOT
ATOM      1  C   UNL     1     101.543 142.181  66.587  0.00  0.00    +0.000 C 
ATOM      2  C   UNL     1     102.723 141.159  66.560  0.00  0.00    +0.000 C 
ATOM      3  C   UNL     1     100.242 141.237  66.480  0.00  0.00    +0.000 C 
ATOM      4  C   UNL     1      99.180 141.420  65.318  0.00  0.00    +0.000 C 
ATOM      5  C   UNL     1      99.267 142.827  64.642  0.00  0.00    +0.000 C 
ATOM      6  C   UNL     1      98.701 143.718  65.767  0.00  0.00    +0.000 C 
ATOM      7  C   UNL     1      98.329 143.116  63.415  0.00  0.00    +0.000 C 
ATOM      8  C   UNL     1      97.416 144.376  63.445  0.00  0.00    +0.000 C 
ATOM      9  C   UNL     1      96.399 144.369  62.297  0.00  0.00    +0.000 C 
ATOM     10  C   UNL     1      96.631 143.207  61.312  0.00  0.00    +0.000 C 
ATOM     11  C   UNL     1      95.721 143.152  60.099  0.00  0.00    +0.000 C 
ATOM     12  C   UNL     1      94.255 143.457  60.480  0.00  0.00    +0.000 C 
ATOM     13  C   UNL     1      96.175 144.227  59.096  0.00  0.00    +0.000 C 
ATOM     14  O   UNL     1      97.488 143.954  58.637  0.00  0.00    +0.000 OA
ATOM     15  C   UNL     1      98.434 144.036  59.695  0.00  0.00    +0.000 C 
ATOM     16  C   UNL     1      98.112 143.047  60.853  0.00  0.00    +0.000 C 
ATOM     17  C   UNL     1      98.402 141.630  60.353  0.00  0.00    +0.000 C 
ATOM     18  C   UNL     1      97.273 141.032  59.531  0.00  0.00    +0.000 C 
ATOM     19  C   UNL     1      95.841 141.680  59.560  0.00  0.00    +0.000 C 
ATOM     20  C   UNL     1      98.983 143.281  62.051  0.00  0.00    +0.000 C 
ATOM     21  C   UNL     1     100.211 143.793  61.941  0.00  0.00    +0.000 C 
ATOM     22  C   UNL     1     100.955 144.094  63.170  0.00  0.00    +0.000 C 
ATOM     23  C   UNL     1     100.777 142.928  64.179  0.00  0.00    +0.000 C 
ATOM     24  C   UNL     1     101.261 141.617  63.440  0.00  0.00    +0.000 C 
ATOM     25  C   UNL     1     101.626 143.216  65.420  0.00  0.00    +0.000 C 
ENDROOT
BRANCH  18  26
ATOM     26  N   UNL     1      97.279 139.557  59.701  0.00  0.00    +0.000 N 
ATOM     27  N   UNL     1      97.957 138.844  58.758  0.00  0.00    +0.000 NA
ATOM     28  C   UNL     1      97.652 137.594  59.092  0.00  0.00    +0.000 A 
ATOM     29  N   UNL     1      96.885 137.444  60.214  0.00  0.00    +0.000 NA
ATOM     30  C   UNL     1      96.721 138.692  60.642  0.00  0.00    +0.000 A 
BRANCH  30  31
ATOM     31  C   UNL     1      96.049 138.969  61.927  0.00  0.00    +0.000 A 
ATOM     32  C   UNL     1      96.654 139.747  62.917  0.00  0.00    +0.000 A 
ATOM     33  C   UNL     1      95.973 139.990  64.116  0.00  0.00    +0.000 A 
ATOM     34  N   UNL     1      94.760 139.482  64.414  0.00  0.00    +0.000 NA
ATOM     35  C   UNL     1      94.173 138.787  63.441  0.00  0.00    +0.000 A 
ATOM     36  C   UNL     1      94.754 138.588  62.200  0.00  0.00    +0.000 A 
ENDBRANCH  30  31
ENDBRANCH  18  26
BRANCH   1  37
ATOM     37  C   UNL     1     101.633 142.963  68.026  0.00  0.00    +0.000 C 
ATOM     38  C   UNL     1     103.007 143.018  68.734  0.00  0.00    +0.000 C 
BRANCH  37  40
ATOM     39  C   UNL     1     101.193 142.019  70.444  0.00  0.00    +0.000 C 
ATOM     40  C   UNL     1     100.600 142.597  69.164  0.00  0.00    +0.000 C 
ATOM     41  C   UNL     1      99.492 143.637  69.453  0.00  0.00    +0.000 C 
ENDBRANCH  37  40
ENDBRANCH   1  37
BRANCH  25  42
ATOM     42  C   UNL     1     102.976 143.760  64.965  0.00  0.00    +0.000 C 
ATOM     43  O   UNL     1     103.809 143.126  64.330  0.00  0.00    +0.000 OA
BRANCH  42  44
ATOM     44  O   UNL     1     103.323 144.947  65.479  0.00  0.00    +0.000 OA
ATOM     45  H   UNL     1     104.268 144.814  65.710  0.00  0.00    +0.000 HD
ENDBRANCH  42  44
ENDBRANCH  25  42
BRANCH  19  46
ATOM     46  O   UNL     1      95.230 141.714  58.267  0.00  0.00    +0.000 OA
BRANCH  46  47
ATOM     47  C   UNL     1      94.366 140.619  58.012  0.00  0.00    +0.000 C 
BRANCH  47  48
ATOM     48  C   UNL     1      92.991 141.089  57.510  0.00  0.00    +0.000 C 
ATOM     49  C   UNL     1      92.787 140.323  56.183  0.00  0.00    +0.000 C 
BRANCH  48  50
ATOM     50  C   UNL     1      91.839 140.859  58.570  0.00  0.00    +0.000 C 
ATOM     51  C   UNL     1      91.121 142.188  58.884  0.00  0.00    +0.000 C 
ATOM     52  C   UNL     1      90.778 139.862  58.043  0.00  0.00    +0.000 C 
ATOM     53  C   UNL     1      92.350 140.291  59.916  0.00  0.00    +0.000 C 
ENDBRANCH  48  50
BRANCH  48  54
ATOM     54  N   UNL     1      93.150 142.514  57.152  0.00  0.00    +0.000 NA
ATOM     55  H   UNL     1      93.695 143.013  57.830  0.00  0.00    +0.000 HD
ATOM     56  H   UNL     1      93.656 142.569  56.253  0.00  0.00    +0.000 HD
ENDBRANCH  48  54
ENDBRANCH  47  48
ENDBRANCH  46  47
ENDBRANCH  19  46
TORSDOF 11
ENDMDL
MODEL 9
REMARK VINA RESULT:     0.004      4.032      6.661
REMARK INTER + INTRA:          -3.754
REMARK INTER:                   0.000
REMARK INTRA:                  -3.754
REMARK UNBOUND:                -3.761
REMARK  Name = 
REMARK  22 active torsions:
REMARK  status: ('A' for Active; 'I' for Inactive)
REMARK    1  A    between atoms: C_1  and  C_2
REMARK    2  A    between atoms: C_2  and  C_3
REMARK    3  A    between atoms: C_2  and  C_4
REMARK    4  A    between atoms: C_4  and  C_5
REMARK    5  A    between atoms: C_4  and  C_6
REMARK    6  A    between atoms: C_6  and  C_7
REMARK    7  A    between atoms: C_10  and  C_11
REMARK    8  A    between atoms: C_16  and  C_17
REMARK    9  A    between atoms: C_23  and  N_24
REMARK   10  A    between atoms: C_28  and  C_29
REMARK   11  A    between atoms: C_35  and  O_36
REMARK   12  A    between atoms: O_36  and  C_37
REMARK   13  A    between atoms: C_37  and  C_38
REMARK   14  A    between atoms: C_38  and  C_39
REMARK   15  A    between atoms: C_38  and  N_40
REMARK   16  A    between atoms: C_38  and  C_41
REMARK   17  A    between atoms: C_41  and  C_42
REMARK   18  A    between atoms: C_41  and  C_43
REMARK   19  A    between atoms: C_41  and  C_44
REMARK   20  A    between atoms: C_48  and  C_49
REMARK   21  A    between atoms: C_50  and  C_51
REMARK   22  A    between atoms: C_51  and  O_53
REMARK                            x       y       z     vdW  Elec       q    Type
REMARK                         _______ _______ _______ _____ _____    ______ ____
ROOT
ATOM      1  C   UNL     1      99.132 142.162  69.647  0.00  0.00    +0.000 C 
ATOM      2  C   UNL     1     100.264 141.726  70.631  0.00  0.00    +0.000 C 
ATOM      3  C   UNL     1      97.852 141.343  70.180  0.00  0.00    +0.000 C 
ATOM      4  C   UNL     1      97.048 140.357  69.236  0.00  0.00    +0.000 C 
ATOM      5  C   UNL     1      97.309 140.634  67.720  0.00  0.00    +0.000 C 
ATOM      6  C   UNL     1      96.556 141.969  67.540  0.00  0.00    +0.000 C 
ATOM      7  C   UNL     1      96.642 139.675  66.668  0.00  0.00    +0.000 C 
ATOM      8  C   UNL     1      95.779 140.289  65.529  0.00  0.00    +0.000 C 
ATOM      9  C   UNL     1      95.011 139.211  64.752  0.00  0.00    +0.000 C 
ATOM     10  C   UNL     1      95.400 137.785  65.185  0.00  0.00    +0.000 C 
ATOM     11  C   UNL     1      94.748 136.643  64.427  0.00  0.00    +0.000 C 
ATOM     12  C   UNL     1      93.245 136.910  64.189  0.00  0.00    +0.000 C 
ATOM     13  C   UNL     1      95.424 136.520  63.050  0.00  0.00    +0.000 C 
ATOM     14  O   UNL     1      96.794 136.186  63.198  0.00  0.00    +0.000 OA
ATOM     15  C   UNL     1      97.512 137.222  63.852  0.00  0.00    +0.000 C 
ATOM     16  C   UNL     1      96.937 137.540  65.264  0.00  0.00    +0.000 C 
ATOM     17  C   UNL     1      97.279 136.365  66.183  0.00  0.00    +0.000 C 
ATOM     18  C   UNL     1      96.320 135.195  66.058  0.00  0.00    +0.000 C 
ATOM     19  C   UNL     1      94.930 135.381  65.347  0.00  0.00    +0.000 C 
ATOM     20  C   UNL     1      97.559 138.767  65.861  0.00  0.00    +0.000 C 
ATOM     21  C   UNL     1      98.799 139.153  65.551  0.00  0.00    +0.000 C 
ATOM     22  C   UNL     1      99.292 140.424  66.093  0.00  0.00    +0.000 C 
ATOM     23  C   UNL     1      98.883 140.540  67.586  0.00  0.00    +0.000 C 
ATOM     24  C   UNL     1      99.465 139.263  68.313  0.00  0.00    +0.000 C 
ATOM     25  C   UNL     1      99.476 141.829  68.160  0.00  0.00    +0.000 C 
ENDROOT
BRANCH  18  26
ATOM     26  N   UNL     1      96.248 134.485  67.360  0.00  0.00    +0.000 N 
ATOM     27  N   UNL     1      97.079 133.415  67.510  0.00  0.00    +0.000 NA
ATOM     28  C   UNL     1      96.678 132.922  68.677  0.00  0.00    +0.000 A 
ATOM     29  N   UNL     1      95.699 133.627  69.320  0.00  0.00    +0.000 NA
ATOM     30  C   UNL     1      95.490 134.664  68.517  0.00  0.00    +0.000 A 
BRANCH  30  31
ATOM     31  C   UNL     1      94.584 135.759  68.915  0.00  0.00    +0.000 A 
ATOM     32  C   UNL     1      95.002 137.093  68.916  0.00  0.00    +0.000 A 
ATOM     33  C   UNL     1      94.104 138.098  69.292  0.00  0.00    +0.000 A 
ATOM     34  N   UNL     1      92.842 137.869  69.707  0.00  0.00    +0.000 NA
ATOM     35  C   UNL     1      92.440 136.600  69.650  0.00  0.00    +0.000 A 
ATOM     36  C   UNL     1      93.250 135.571  69.200  0.00  0.00    +0.000 A 
ENDBRANCH  30  31
ENDBRANCH  18  26
BRANCH   1  37
ATOM     37  C   UNL     1      98.957 143.784  69.824  0.00  0.00    +0.000 C 
ATOM     38  C   UNL     1     100.163 144.587  70.365  0.00  0.00    +0.000 C 
BRANCH  37  40
ATOM     39  C   UNL     1      98.016 145.124  71.886  0.00  0.00    +0.000 C 
ATOM     40  C   UNL     1      97.708 144.338  70.616  0.00  0.00    +0.000 C 
ATOM     41  C   UNL     1      96.595 145.007  69.773  0.00  0.00    +0.000 C 
ENDBRANCH  37  40
ENDBRANCH   1  37
BRANCH  25  42
ATOM     42  C   UNL     1     100.905 141.973  67.648  0.00  0.00    +0.000 C 
ATOM     43  O   UNL     1     101.828 141.220  67.926  0.00  0.00    +0.000 OA
BRANCH  42  44
ATOM     44  O   UNL     1     101.177 143.120  67.011  0.00  0.00    +0.000 OA
ATOM     45  H   UNL     1     101.700 142.818  66.237  0.00  0.00    +0.000 HD
ENDBRANCH  42  44
ENDBRANCH  25  42
BRANCH  19  46
ATOM     46  O   UNL     1      94.590 134.270  64.513  0.00  0.00    +0.000 OA
BRANCH  46  47
ATOM     47  C   UNL     1      93.762 133.309  65.147  0.00  0.00    +0.000 C 
BRANCH  47  48
ATOM     48  C   UNL     1      92.530 132.973  64.292  0.00  0.00    +0.000 C 
ATOM     49  C   UNL     1      92.571 131.434  64.150  0.00  0.00    +0.000 C 
BRANCH  48  50
ATOM     50  C   UNL     1      91.183 133.526  64.913  0.00  0.00    +0.000 C 
ATOM     51  C   UNL     1      90.456 134.437  63.902  0.00  0.00    +0.000 C 
ATOM     52  C   UNL     1      90.219 132.373  65.287  0.00  0.00    +0.000 C 
ATOM     53  C   UNL     1      91.398 134.358  66.200  0.00  0.00    +0.000 C 
ENDBRANCH  48  50
BRANCH  48  54
ATOM     54  N   UNL     1      92.798 133.527  62.948  0.00  0.00    +0.000 NA
ATOM     55  H   UNL     1      93.366 132.912  62.395  0.00  0.00    +0.000 HD
ATOM     56  H   UNL     1      91.896 133.636  62.455  0.00  0.00    +0.000 HD
ENDBRANCH  48  54
ENDBRANCH  47  48
ENDBRANCH  46  47
ENDBRANCH  19  46
TORSDOF 11
ENDMDL
