MODEL 1
REMARK VINA RESULT:     0.000      0.000      0.000
REMARK INTER + INTRA:          -3.409
REMARK INTER:                   0.000
REMARK INTRA:                  -3.409
REMARK UNBOUND:                -3.409
REMARK  Name = 
REMARK  16 active torsions:
REMARK  status: ('A' for Active; 'I' for Inactive)
REMARK    1  A    between atoms: C_1  and  C_2
REMARK    2  A    between atoms: C_2  and  C_3
REMARK    3  A    between atoms: C_2  and  CA_12
REMARK    4  A    between atoms: C_3  and  C_4
REMARK    5  A    between atoms: C_3  and  O_11
REMARK    6  A    between atoms: C_7  and  O_10
REMARK    7  A    between atoms: CA_12  and  C_13
REMARK    8  A    between atoms: CA_12  and  N_35
REMARK    9  A    between atoms: N_15  and  CA_16
REMARK   10  A    between atoms: CA_16  and  C_17
REMARK   11  A    between atoms: CA_16  and  C_32
REMARK   12  A    between atoms: C_18  and  O_31
REMARK   13  A    between atoms: C_19  and  O_30
REMARK   14  A    between atoms: C_20  and  N_22
REMARK   15  A    between atoms: CA_24  and  C_28
REMARK   16  A    between atoms: C_32  and  OXT_34
REMARK                            x       y       z     vdW  Elec       q    Type
REMARK                         _______ _______ _______ _____ _____    ______ ____
ROOT
ATOM      1  CA  UNL     1      92.374 144.595  64.380  0.00  0.00    +0.213 C 
ENDROOT
BRANCH   1   2
ATOM      2  C   UNL     1      93.766 143.963  64.555  0.00  0.00    +0.183 C 
ATOM      3  C   UNL     1      93.940 143.036  65.762  0.00  0.00    +0.178 C 
ATOM      4  C   UNL     1      95.388 143.264  66.214  0.00  0.00    +0.195 C 
ATOM      5  C   UNL     1      95.973 144.217  65.158  0.00  0.00    +0.255 C 
ATOM      6  O   UNL     1      94.832 144.918  64.619  0.00  0.00    -0.345 OA
BRANCH   5   7
ATOM      7  N   UNL     1      96.717 143.592  64.082  0.00  0.00    -0.270 N 
ATOM      8  C   UNL     1      96.331 142.556  63.255  0.00  0.00    +0.122 A 
ATOM      9  CA  UNL     1      97.340 142.250  62.442  0.00  0.00    +0.099 A 
ATOM     10  N   UNL     1      98.399 143.081  62.709  0.00  0.00    -0.304 N 
ATOM     11  C   UNL     1      98.045 143.948  63.757  0.00  0.00    +0.329 A 
ATOM     12  O   UNL     1      98.760 144.794  64.260  0.00  0.00    -0.246 OA
ATOM     13  H   UNL     1      99.309 143.084  62.275  0.00  0.00    +0.171 HD
BRANCH   9  14
ATOM     14  C   UNL     1      97.330 141.180  61.429  0.00  0.00    +0.278 C 
ATOM     15  O   UNL     1      96.316 140.848  60.833  0.00  0.00    -0.294 OA
ENDBRANCH   9  14
ENDBRANCH   5   7
BRANCH   4  16
ATOM     16  O   UNL     1      96.121 142.058  66.416  0.00  0.00    -0.385 OA
ATOM     17  H   UNL     1      95.603 141.354  65.976  0.00  0.00    +0.210 HD
ENDBRANCH   4  16
BRANCH   3  18
ATOM     18  O   UNL     1      93.734 141.656  65.446  0.00  0.00    -0.386 OA
ATOM     19  H   UNL     1      92.873 141.535  64.994  0.00  0.00    +0.210 HD
ENDBRANCH   3  18
ENDBRANCH   1   2
BRANCH   1  22
ATOM     20  C   UNL     1      91.221 143.030  62.826  0.00  0.00    +0.231 C 
ATOM     21  O   UNL     1      91.196 142.142  63.670  0.00  0.00    -0.274 OA
ATOM     22  N   UNL     1      91.693 144.302  63.107  0.00  0.00    -0.299 N 
ATOM     23  H   UNL     1      91.806 144.950  62.335  0.00  0.00    +0.150 HD
BRANCH  20  24
ATOM     24  CA  UNL     1      90.620 142.849  61.407  0.00  0.00    +0.143 C 
BRANCH  24  25
ATOM     25  N   UNL     1      89.891 144.090  61.067  0.00  0.00    -0.320 NA
ATOM     26  H1  UNL     1      90.233 144.502  60.206  0.00  0.00    +0.119 HD
ATOM     27  H2  UNL     1      90.069 144.774  61.811  0.00  0.00    +0.119 HD
ENDBRANCH  24  25
BRANCH  24  29
ATOM     28  C   UNL     1      91.099 141.443  59.363  0.00  0.00    +0.012 C 
ATOM     29  C   UNL     1      91.677 142.496  60.329  0.00  0.00    +0.046 C 
BRANCH  29  30
ATOM     30  C   UNL     1      92.134 143.767  59.562  0.00  0.00    +0.168 C 
BRANCH  30  31
ATOM     31  C   UNL     1      93.585 144.129  59.859  0.00  0.00    +0.070 A 
ATOM     32  N   UNL     1      93.797 144.976  60.905  0.00  0.00    -0.254 NA
ATOM     33  C   UNL     1      95.073 145.357  61.146  0.00  0.00    +0.156 A 
ATOM     34  C   UNL     1      96.154 144.930  60.393  0.00  0.00    +0.135 A 
ATOM     35  C   UNL     1      95.926 144.056  59.341  0.00  0.00    +0.049 A 
ATOM     36  C   UNL     1      94.623 143.644  59.066  0.00  0.00    +0.029 A 
BRANCH  34  37
ATOM     37  O   UNL     1      97.433 145.327  60.636  0.00  0.00    -0.505 OA
ATOM     38  H   UNL     1      97.535 146.258  60.376  0.00  0.00    +0.292 HD
ENDBRANCH  34  37
ENDBRANCH  30  31
BRANCH  30  39
ATOM     39  O   UNL     1      91.980 143.547  58.153  0.00  0.00    -0.385 OA
ATOM     40  H   UNL     1      92.420 142.687  57.981  0.00  0.00    +0.210 HD
ENDBRANCH  30  39
ENDBRANCH  29  30
ENDBRANCH  24  29
ENDBRANCH  20  24
ENDBRANCH   1  22
BRANCH   1  41
ATOM     41  C   UNL     1      92.504 146.111  64.558  0.00  0.00    +0.328 C 
ATOM     42  O   UNL     1      92.271 146.707  65.599  0.00  0.00    -0.249 OA
BRANCH  41  43
ATOM     43  OXT UNL     1      92.886 146.749  63.425  0.00  0.00    -0.479 OA
ATOM     44  HXT UNL     1      93.832 146.582  63.237  0.00  0.00    +0.295 HD
ENDBRANCH  41  43
ENDBRANCH   1  41
TORSDOF 15
ENDMDL
MODEL 2
REMARK VINA RESULT:     0.001     10.037     13.612
REMARK INTER + INTRA:          -3.408
REMARK INTER:                   0.000
REMARK INTRA:                  -3.408
REMARK UNBOUND:                -3.409
REMARK  Name = 
REMARK  16 active torsions:
REMARK  status: ('A' for Active; 'I' for Inactive)
REMARK    1  A    between atoms: C_1  and  C_2
REMARK    2  A    between atoms: C_2  and  C_3
REMARK    3  A    between atoms: C_2  and  CA_12
REMARK    4  A    between atoms: C_3  and  C_4
REMARK    5  A    between atoms: C_3  and  O_11
REMARK    6  A    between atoms: C_7  and  O_10
REMARK    7  A    between atoms: CA_12  and  C_13
REMARK    8  A    between atoms: CA_12  and  N_35
REMARK    9  A    between atoms: N_15  and  CA_16
REMARK   10  A    between atoms: CA_16  and  C_17
REMARK   11  A    between atoms: CA_16  and  C_32
REMARK   12  A    between atoms: C_18  and  O_31
REMARK   13  A    between atoms: C_19  and  O_30
REMARK   14  A    between atoms: C_20  and  N_22
REMARK   15  A    between atoms: CA_24  and  C_28
REMARK   16  A    between atoms: C_32  and  OXT_34
REMARK                            x       y       z     vdW  Elec       q    Type
REMARK                         _______ _______ _______ _____ _____    ______ ____
ROOT
ATOM      1  CA  UNL     1      90.080 135.049  60.714  0.00  0.00    +0.213 C 
ENDROOT
BRANCH   1   2
ATOM      2  C   UNL     1      88.592 135.381  60.497  0.00  0.00    +0.183 C 
ATOM      3  C   UNL     1      88.269 136.841  60.164  0.00  0.00    +0.178 C 
ATOM      4  C   UNL     1      86.914 137.096  60.840  0.00  0.00    +0.195 C 
ATOM      5  C   UNL     1      86.507 135.726  61.408  0.00  0.00    +0.255 C 
ATOM      6  O   UNL     1      87.751 135.018  61.598  0.00  0.00    -0.345 OA
BRANCH   5   7
ATOM      7  N   UNL     1      85.615 134.936  60.583  0.00  0.00    -0.270 N 
ATOM      8  C   UNL     1      85.752 134.590  59.254  0.00  0.00    +0.122 A 
ATOM      9  CA  UNL     1      84.676 133.906  58.870  0.00  0.00    +0.099 A 
ATOM     10  N   UNL     1      83.820 133.781  59.935  0.00  0.00    -0.304 N 
ATOM     11  C   UNL     1      84.379 134.433  61.048  0.00  0.00    +0.329 A 
ATOM     12  O   UNL     1      83.872 134.537  62.148  0.00  0.00    -0.246 OA
ATOM     13  H   UNL     1      82.917 133.333  59.956  0.00  0.00    +0.171 HD
BRANCH   9  14
ATOM     14  C   UNL     1      84.431 133.382  57.514  0.00  0.00    +0.278 C 
ATOM     15  O   UNL     1      85.335 133.016  56.778  0.00  0.00    -0.294 OA
ENDBRANCH   9  14
ENDBRANCH   5   7
BRANCH   4  16
ATOM     16  O   UNL     1      85.955 137.707  59.982  0.00  0.00    -0.385 OA
ATOM     17  H   UNL     1      85.894 138.641  60.271  0.00  0.00    +0.210 HD
ENDBRANCH   4  16
BRANCH   3  18
ATOM     18  O   UNL     1      88.173 137.090  58.759  0.00  0.00    -0.386 OA
ATOM     19  H   UNL     1      87.315 136.763  58.414  0.00  0.00    +0.210 HD
ENDBRANCH   3  18
ENDBRANCH   1   2
BRANCH   1  22
ATOM     20  C   UNL     1      90.831 134.274  58.472  0.00  0.00    +0.231 C 
ATOM     21  O   UNL     1      90.698 135.394  57.993  0.00  0.00    -0.274 OA
ATOM     22  N   UNL     1      90.643 134.021  59.821  0.00  0.00    -0.299 N 
ATOM     23  H   UNL     1      90.643 133.056  60.130  0.00  0.00    +0.150 HD
BRANCH  20  24
ATOM     24  CA  UNL     1      91.335 133.066  57.639  0.00  0.00    +0.143 C 
BRANCH  24  25
ATOM     25  N   UNL     1      92.297 132.315  58.475  0.00  0.00    -0.320 NA
ATOM     26  H1  UNL     1      93.151 132.841  58.628  0.00  0.00    +0.119 HD
ATOM     27  H2  UNL     1      92.562 131.466  57.964  0.00  0.00    +0.119 HD
ENDBRANCH  24  25
BRANCH  24  29
ATOM     28  C   UNL     1      90.508 131.693  55.686  0.00  0.00    +0.012 C 
ATOM     29  C   UNL     1      90.194 132.152  57.123  0.00  0.00    +0.046 C 
BRANCH  29  30
ATOM     30  C   UNL     1      89.988 130.936  58.067  0.00  0.00    +0.168 C 
BRANCH  30  31
ATOM     31  C   UNL     1      88.653 130.995  58.802  0.00  0.00    +0.070 A 
ATOM     32  N   UNL     1      88.656 131.623  60.012  0.00  0.00    -0.254 NA
ATOM     33  C   UNL     1      87.495 131.633  60.708  0.00  0.00    +0.156 A 
ATOM     34  C   UNL     1      86.324 131.049  60.251  0.00  0.00    +0.135 A 
ATOM     35  C   UNL     1      86.332 130.428  59.012  0.00  0.00    +0.049 A 
ATOM     36  C   UNL     1      87.512 130.400  58.270  0.00  0.00    +0.029 A 
BRANCH  34  37
ATOM     37  O   UNL     1      85.165 131.055  60.963  0.00  0.00    -0.505 OA
ATOM     38  H   UNL     1      84.918 130.141  61.183  0.00  0.00    +0.292 HD
ENDBRANCH  34  37
ENDBRANCH  30  31
BRANCH  30  39
ATOM     39  O   UNL     1      90.049 129.727  57.295  0.00  0.00    -0.385 OA
ATOM     40  H   UNL     1      89.312 129.800  56.651  0.00  0.00    +0.210 HD
ENDBRANCH  30  39
ENDBRANCH  29  30
ENDBRANCH  24  29
ENDBRANCH  20  24
ENDBRANCH   1  22
BRANCH   1  41
ATOM     41  C   UNL     1      90.273 134.624  62.173  0.00  0.00    +0.328 C 
ATOM     42  O   UNL     1      90.659 135.368  63.064  0.00  0.00    -0.249 OA
BRANCH  41  43
ATOM     43  OXT UNL     1      89.995 133.315  62.389  0.00  0.00    -0.479 OA
ATOM     44  HXT UNL     1      89.722 133.169  63.318  0.00  0.00    +0.295 HD
ENDBRANCH  41  43
ENDBRANCH   1  41
TORSDOF 15
ENDMDL
MODEL 3
REMARK VINA RESULT:     0.001      6.673      8.510
REMARK INTER + INTRA:          -3.407
REMARK INTER:                   0.000
REMARK INTRA:                  -3.407
REMARK UNBOUND:                -3.409
REMARK  Name = 
REMARK  16 active torsions:
REMARK  status: ('A' for Active; 'I' for Inactive)
REMARK    1  A    between atoms: C_1  and  C_2
REMARK    2  A    between atoms: C_2  and  C_3
REMARK    3  A    between atoms: C_2  and  CA_12
REMARK    4  A    between atoms: C_3  and  C_4
REMARK    5  A    between atoms: C_3  and  O_11
REMARK    6  A    between atoms: C_7  and  O_10
REMARK    7  A    between atoms: CA_12  and  C_13
REMARK    8  A    between atoms: CA_12  and  N_35
REMARK    9  A    between atoms: N_15  and  CA_16
REMARK   10  A    between atoms: CA_16  and  C_17
REMARK   11  A    between atoms: CA_16  and  C_32
REMARK   12  A    between atoms: C_18  and  O_31
REMARK   13  A    between atoms: C_19  and  O_30
REMARK   14  A    between atoms: C_20  and  N_22
REMARK   15  A    between atoms: CA_24  and  C_28
REMARK   16  A    between atoms: C_32  and  OXT_34
REMARK                            x       y       z     vdW  Elec       q    Type
REMARK                         _______ _______ _______ _____ _____    ______ ____
ROOT
ATOM      1  CA  UNL     1      95.863 138.422  63.764  0.00  0.00    +0.213 C 
ENDROOT
BRANCH   1   2
ATOM      2  C   UNL     1      95.582 137.084  64.472  0.00  0.00    +0.183 C 
ATOM      3  C   UNL     1      95.675 137.098  66.001  0.00  0.00    +0.178 C 
ATOM      4  C   UNL     1      96.230 135.714  66.363  0.00  0.00    +0.195 C 
ATOM      5  C   UNL     1      96.302 134.968  65.020  0.00  0.00    +0.255 C 
ATOM      6  O   UNL     1      96.413 136.007  64.024  0.00  0.00    -0.345 OA
BRANCH   5   7
ATOM      7  N   UNL     1      95.175 134.110  64.710  0.00  0.00    -0.270 N 
ATOM      8  C   UNL     1      93.830 134.418  64.718  0.00  0.00    +0.122 A 
ATOM      9  CA  UNL     1      93.131 133.322  64.429  0.00  0.00    +0.099 A 
ATOM     10  N   UNL     1      93.998 132.281  64.216  0.00  0.00    -0.304 N 
ATOM     11  C   UNL     1      95.315 132.740  64.395  0.00  0.00    +0.329 A 
ATOM     12  O   UNL     1      96.326 132.070  64.308  0.00  0.00    -0.246 OA
ATOM     13  H   UNL     1      93.774 131.322  63.998  0.00  0.00    +0.171 HD
BRANCH   9  14
ATOM     14  C   UNL     1      91.661 133.234  64.365  0.00  0.00    +0.278 C 
ATOM     15  O   UNL     1      90.961 134.177  64.025  0.00  0.00    -0.294 OA
ENDBRANCH   9  14
ENDBRANCH   5   7
BRANCH   4  16
ATOM     16  O   UNL     1      95.493 135.052  67.387  0.00  0.00    -0.385 OA
ATOM     17  H   UNL     1      94.720 135.624  67.572  0.00  0.00    +0.210 HD
ENDBRANCH   4  16
BRANCH   3  18
ATOM     18  O   UNL     1      94.412 137.304  66.639  0.00  0.00    -0.386 OA
ATOM     19  H   UNL     1      93.791 137.753  66.028  0.00  0.00    +0.210 HD
ENDBRANCH   3  18
ENDBRANCH   1   2
BRANCH   1  22
ATOM     20  C   UNL     1      93.597 139.412  63.483  0.00  0.00    +0.231 C 
ATOM     21  O   UNL     1      93.472 139.576  64.691  0.00  0.00    -0.274 OA
ATOM     22  N   UNL     1      94.771 138.940  62.920  0.00  0.00    -0.299 N 
ATOM     23  H   UNL     1      94.768 138.707  61.933  0.00  0.00    +0.150 HD
BRANCH  20  24
ATOM     24  CA  UNL     1      92.501 139.829  62.467  0.00  0.00    +0.143 C 
BRANCH  24  25
ATOM     25  N   UNL     1      93.176 140.471  61.317  0.00  0.00    -0.320 NA
ATOM     26  H1  UNL     1      92.572 141.142  60.855  0.00  0.00    +0.119 HD
ATOM     27  H2  UNL     1      93.384 139.740  60.627  0.00  0.00    +0.119 HD
ENDBRANCH  24  25
BRANCH  24  29
ATOM     28  C   UNL     1      90.137 139.132  61.907  0.00  0.00    +0.012 C 
ATOM     29  C   UNL     1      91.599 138.652  62.014  0.00  0.00    +0.046 C 
BRANCH  29  30
ATOM     30  C   UNL     1      92.093 138.061  60.666  0.00  0.00    +0.168 C 
BRANCH  30  31
ATOM     31  C   UNL     1      92.648 136.649  60.825  0.00  0.00    +0.070 A 
ATOM     32  N   UNL     1      93.983 136.548  61.079  0.00  0.00    -0.254 NA
ATOM     33  C   UNL     1      94.506 135.302  61.162  0.00  0.00    +0.156 A 
ATOM     34  C   UNL     1      93.757 134.146  61.009  0.00  0.00    +0.135 A 
ATOM     35  C   UNL     1      92.397 134.264  60.767  0.00  0.00    +0.049 A 
ATOM     36  C   UNL     1      91.827 135.533  60.674  0.00  0.00    +0.029 A 
BRANCH  34  37
ATOM     37  O   UNL     1      94.294 132.898  61.084  0.00  0.00    -0.505 OA
ATOM     38  H   UNL     1      94.149 132.539  61.975  0.00  0.00    +0.292 HD
ENDBRANCH  34  37
ENDBRANCH  30  31
BRANCH  30  39
ATOM     39  O   UNL     1      91.003 138.038  59.734  0.00  0.00    -0.385 OA
ATOM     40  H   UNL     1      90.236 137.705  60.248  0.00  0.00    +0.210 HD
ENDBRANCH  30  39
ENDBRANCH  29  30
ENDBRANCH  24  29
ENDBRANCH  20  24
ENDBRANCH   1  22
BRANCH   1  41
ATOM     41  C   UNL     1      97.135 138.269  62.924  0.00  0.00    +0.328 C 
ATOM     42  O   UNL     1      98.249 138.617  63.287  0.00  0.00    -0.249 OA
BRANCH  41  43
ATOM     43  OXT UNL     1      96.906 137.721  61.705  0.00  0.00    -0.479 OA
ATOM     44  HXT UNL     1      96.338 136.927  61.784  0.00  0.00    +0.295 HD
ENDBRANCH  41  43
ENDBRANCH   1  41
TORSDOF 15
ENDMDL
MODEL 4
REMARK VINA RESULT:     0.001      7.816     10.827
REMARK INTER + INTRA:          -3.407
REMARK INTER:                   0.000
REMARK INTRA:                  -3.407
REMARK UNBOUND:                -3.409
REMARK  Name = 
REMARK  16 active torsions:
REMARK  status: ('A' for Active; 'I' for Inactive)
REMARK    1  A    between atoms: C_1  and  C_2
REMARK    2  A    between atoms: C_2  and  C_3
REMARK    3  A    between atoms: C_2  and  CA_12
REMARK    4  A    between atoms: C_3  and  C_4
REMARK    5  A    between atoms: C_3  and  O_11
REMARK    6  A    between atoms: C_7  and  O_10
REMARK    7  A    between atoms: CA_12  and  C_13
REMARK    8  A    between atoms: CA_12  and  N_35
REMARK    9  A    between atoms: N_15  and  CA_16
REMARK   10  A    between atoms: CA_16  and  C_17
REMARK   11  A    between atoms: CA_16  and  C_32
REMARK   12  A    between atoms: C_18  and  O_31
REMARK   13  A    between atoms: C_19  and  O_30
REMARK   14  A    between atoms: C_20  and  N_22
REMARK   15  A    between atoms: CA_24  and  C_28
REMARK   16  A    between atoms: C_32  and  OXT_34
REMARK                            x       y       z     vdW  Elec       q    Type
REMARK                         _______ _______ _______ _____ _____    ______ ____
ROOT
ATOM      1  CA  UNL     1      94.491 132.970  66.179  0.00  0.00    +0.213 C 
ENDROOT
BRANCH   1   2
ATOM      2  C   UNL     1      94.248 134.228  65.325  0.00  0.00    +0.183 C 
ATOM      3  C   UNL     1      92.943 134.257  64.523  0.00  0.00    +0.178 C 
ATOM      4  C   UNL     1      93.305 135.002  63.231  0.00  0.00    +0.195 C 
ATOM      5  C   UNL     1      94.761 135.449  63.443  0.00  0.00    +0.255 C 
ATOM      6  O   UNL     1      95.302 134.511  64.398  0.00  0.00    -0.345 OA
BRANCH   5   7
ATOM      7  N   UNL     1      94.946 136.803  63.927  0.00  0.00    -0.270 N 
ATOM      8  C   UNL     1      94.367 137.412  65.022  0.00  0.00    +0.122 A 
ATOM      9  CA  UNL     1      94.764 138.682  65.073  0.00  0.00    +0.099 A 
ATOM     10  N   UNL     1      95.616 138.928  64.026  0.00  0.00    -0.304 N 
ATOM     11  C   UNL     1      95.752 137.754  63.263  0.00  0.00    +0.329 A 
ATOM     12  O   UNL     1      96.412 137.630  62.250  0.00  0.00    -0.246 OA
ATOM     13  H   UNL     1      96.066 139.797  63.784  0.00  0.00    +0.171 HD
BRANCH   9  14
ATOM     14  C   UNL     1      94.345 139.672  66.082  0.00  0.00    +0.278 C 
ATOM     15  O   UNL     1      94.086 139.365  67.236  0.00  0.00    -0.294 OA
ENDBRANCH   9  14
ENDBRANCH   5   7
BRANCH   4  16
ATOM     16  O   UNL     1      92.392 136.044  62.898  0.00  0.00    -0.385 OA
ATOM     17  H   UNL     1      91.571 135.598  62.605  0.00  0.00    +0.210 HD
ENDBRANCH   4  16
BRANCH   3  18
ATOM     18  O   UNL     1      91.881 134.934  65.201  0.00  0.00    -0.386 OA
ATOM     19  H   UNL     1      92.186 135.807  65.525  0.00  0.00    +0.210 HD
ENDBRANCH   3  18
ENDBRANCH   1   2
BRANCH   1  22
ATOM     20  C   UNL     1      93.612 133.615  68.416  0.00  0.00    +0.231 C 
ATOM     21  O   UNL     1      92.460 133.646  68.002  0.00  0.00    -0.274 OA
ATOM     22  N   UNL     1      94.670 133.202  67.623  0.00  0.00    -0.299 N 
ATOM     23  H   UNL     1      95.611 133.320  67.983  0.00  0.00    +0.150 HD
BRANCH  20  24
ATOM     24  CA  UNL     1      93.975 133.917  69.894  0.00  0.00    +0.143 C 
BRANCH  24  25
ATOM     25  N   UNL     1      94.984 132.922  70.321  0.00  0.00    -0.320 NA
ATOM     26  H1  UNL     1      95.761 133.359  70.804  0.00  0.00    +0.119 HD
ATOM     27  H2  UNL     1      95.370 132.484  69.477  0.00  0.00    +0.119 HD
ENDBRANCH  24  25
BRANCH  24  29
ATOM     28  C   UNL     1      93.898 135.909  71.447  0.00  0.00    +0.012 C 
ATOM     29  C   UNL     1      94.474 135.367  70.124  0.00  0.00    +0.046 C 
BRANCH  29  30
ATOM     30  C   UNL     1      96.026 135.427  70.124  0.00  0.00    +0.168 C 
BRANCH  30  31
ATOM     31  C   UNL     1      96.574 136.180  68.917  0.00  0.00    +0.070 A 
ATOM     32  N   UNL     1      96.842 135.434  67.808  0.00  0.00    -0.254 NA
ATOM     33  C   UNL     1      97.386 136.074  66.746  0.00  0.00    +0.156 A 
ATOM     34  C   UNL     1      97.674 137.429  66.735  0.00  0.00    +0.135 A 
ATOM     35  C   UNL     1      97.381 138.179  67.864  0.00  0.00    +0.049 A 
ATOM     36  C   UNL     1      96.820 137.550  68.975  0.00  0.00    +0.029 A 
BRANCH  34  37
ATOM     37  O   UNL     1      98.231 138.062  65.668  0.00  0.00    -0.505 OA
ATOM     38  H   UNL     1      99.197 138.081  65.773  0.00  0.00    +0.292 HD
ENDBRANCH  34  37
ENDBRANCH  30  31
BRANCH  30  39
ATOM     39  O   UNL     1      96.471 136.072  71.326  0.00  0.00    -0.385 OA
ATOM     40  H   UNL     1      95.665 136.168  71.876  0.00  0.00    +0.210 HD
ENDBRANCH  30  39
ENDBRANCH  29  30
ENDBRANCH  24  29
ENDBRANCH  20  24
ENDBRANCH   1  22
BRANCH   1  41
ATOM     41  C   UNL     1      95.713 132.234  65.620  0.00  0.00    +0.328 C 
ATOM     42  O   UNL     1      95.656 131.286  64.850  0.00  0.00    -0.249 OA
BRANCH  41  43
ATOM     43  OXT UNL     1      96.889 132.723  66.085  0.00  0.00    -0.479 OA
ATOM     44  HXT UNL     1      97.521 131.996  66.257  0.00  0.00    +0.295 HD
ENDBRANCH  41  43
ENDBRANCH   1  41
TORSDOF 15
ENDMDL
MODEL 5
REMARK VINA RESULT:     0.001      7.465     10.194
REMARK INTER + INTRA:          -3.407
REMARK INTER:                   0.000
REMARK INTRA:                  -3.407
REMARK UNBOUND:                -3.409
REMARK  Name = 
REMARK  16 active torsions:
REMARK  status: ('A' for Active; 'I' for Inactive)
REMARK    1  A    between atoms: C_1  and  C_2
REMARK    2  A    between atoms: C_2  and  C_3
REMARK    3  A    between atoms: C_2  and  CA_12
REMARK    4  A    between atoms: C_3  and  C_4
REMARK    5  A    between atoms: C_3  and  O_11
REMARK    6  A    between atoms: C_7  and  O_10
REMARK    7  A    between atoms: CA_12  and  C_13
REMARK    8  A    between atoms: CA_12  and  N_35
REMARK    9  A    between atoms: N_15  and  CA_16
REMARK   10  A    between atoms: CA_16  and  C_17
REMARK   11  A    between atoms: CA_16  and  C_32
REMARK   12  A    between atoms: C_18  and  O_31
REMARK   13  A    between atoms: C_19  and  O_30
REMARK   14  A    between atoms: C_20  and  N_22
REMARK   15  A    between atoms: CA_24  and  C_28
REMARK   16  A    between atoms: C_32  and  OXT_34
REMARK                            x       y       z     vdW  Elec       q    Type
REMARK                         _______ _______ _______ _____ _____    ______ ____
ROOT
ATOM      1  CA  UNL     1      94.491 132.970  66.179  0.00  0.00    +0.213 C 
ENDROOT
BRANCH   1   2
ATOM      2  C   UNL     1      94.656 133.631  64.798  0.00  0.00    +0.183 C 
ATOM      3  C   UNL     1      93.801 133.050  63.667  0.00  0.00    +0.178 C 
ATOM      4  C   UNL     1      94.684 133.175  62.418  0.00  0.00    +0.195 C 
ATOM      5  C   UNL     1      95.933 133.928  62.907  0.00  0.00    +0.255 C 
ATOM      6  O   UNL     1      96.007 133.646  64.321  0.00  0.00    -0.345 OA
BRANCH   5   7
ATOM      7  N   UNL     1      95.936 135.362  62.692  0.00  0.00    -0.270 N 
ATOM      8  C   UNL     1      94.971 136.286  63.039  0.00  0.00    +0.122 A 
ATOM      9  CA  UNL     1      95.344 137.488  62.604  0.00  0.00    +0.099 A 
ATOM     10  N   UNL     1      96.559 137.379  61.975  0.00  0.00    -0.304 N 
ATOM     11  C   UNL     1      96.968 136.035  62.002  0.00  0.00    +0.329 A 
ATOM     12  O   UNL     1      97.985 135.585  61.511  0.00  0.00    -0.246 OA
ATOM     13  H   UNL     1      97.091 138.108  61.525  0.00  0.00    +0.171 HD
BRANCH   9  14
ATOM     14  C   UNL     1      94.570 138.733  62.755  0.00  0.00    +0.278 C 
ATOM     15  O   UNL     1      93.849 138.945  63.718  0.00  0.00    -0.294 OA
ENDBRANCH   9  14
ENDBRANCH   5   7
BRANCH   4  16
ATOM     16  O   UNL     1      94.019 133.763  61.304  0.00  0.00    -0.385 OA
ATOM     17  H   UNL     1      93.076 133.514  61.393  0.00  0.00    +0.210 HD
ENDBRANCH   4  16
BRANCH   3  18
ATOM     18  O   UNL     1      92.572 133.755  63.473  0.00  0.00    -0.386 OA
ATOM     19  H   UNL     1      92.738 134.719  63.412  0.00  0.00    +0.210 HD
ENDBRANCH   3  18
ENDBRANCH   1   2
BRANCH   1  22
ATOM     20  C   UNL     1      92.782 134.392  67.297  0.00  0.00    +0.231 C 
ATOM     21  O   UNL     1      91.905 134.019  66.526  0.00  0.00    -0.274 OA
ATOM     22  N   UNL     1      94.062 133.864  67.269  0.00  0.00    -0.299 N 
ATOM     23  H   UNL     1      94.772 134.304  67.845  0.00  0.00    +0.150 HD
BRANCH  20  24
ATOM     24  CA  UNL     1      92.508 135.397  68.447  0.00  0.00    +0.143 C 
BRANCH  24  25
ATOM     25  N   UNL     1      93.223 134.909  69.648  0.00  0.00    -0.320 NA
ATOM     26  H1  UNL     1      93.741 135.653  70.103  0.00  0.00    +0.119 HD
ATOM     27  H2  UNL     1      93.913 134.214  69.342  0.00  0.00    +0.119 HD
ENDBRANCH  24  25
BRANCH  24  29
ATOM     28  C   UNL     1      91.845 137.825  68.662  0.00  0.00    +0.012 C 
ATOM     29  C   UNL     1      92.904 136.855  68.101  0.00  0.00    +0.046 C 
BRANCH  29  30
ATOM     30  C   UNL     1      94.318 137.191  68.650  0.00  0.00    +0.168 C 
BRANCH  30  31
ATOM     31  C   UNL     1      95.336 137.396  67.533  0.00  0.00    +0.070 A 
ATOM     32  N   UNL     1      96.019 136.289  67.126  0.00  0.00    -0.254 NA
ATOM     33  C   UNL     1      96.970 136.462  66.178  0.00  0.00    +0.156 A 
ATOM     34  C   UNL     1      97.271 137.689  65.611  0.00  0.00    +0.135 A 
ATOM     35  C   UNL     1      96.557 138.804  66.023  0.00  0.00    +0.049 A 
ATOM     36  C   UNL     1      95.570 138.661  66.997  0.00  0.00    +0.029 A 
BRANCH  34  37
ATOM     37  O   UNL     1      98.237 137.854  64.666  0.00  0.00    -0.505 OA
ATOM     38  H   UNL     1      99.072 138.096  65.100  0.00  0.00    +0.292 HD
ENDBRANCH  34  37
ENDBRANCH  30  31
BRANCH  30  39
ATOM     39  O   UNL     1      94.242 138.383  69.445  0.00  0.00    -0.385 OA
ATOM     40  H   UNL     1      93.283 138.570  69.531  0.00  0.00    +0.210 HD
ENDBRANCH  30  39
ENDBRANCH  29  30
ENDBRANCH  24  29
ENDBRANCH  20  24
ENDBRANCH   1  22
BRANCH   1  41
ATOM     41  C   UNL     1      95.815 132.298  66.556  0.00  0.00    +0.328 C 
ATOM     42  O   UNL     1      96.058 131.111  66.394  0.00  0.00    -0.249 OA
BRANCH  41  43
ATOM     43  OXT UNL     1      96.705 133.151  67.119  0.00  0.00    -0.479 OA
ATOM     44  HXT UNL     1      97.191 132.713  67.847  0.00  0.00    +0.295 HD
ENDBRANCH  41  43
ENDBRANCH   1  41
TORSDOF 15
ENDMDL
MODEL 6
REMARK VINA RESULT:     0.002      5.685      8.599
REMARK INTER + INTRA:          -3.406
REMARK INTER:                   0.000
REMARK INTRA:                  -3.406
REMARK UNBOUND:                -3.409
REMARK  Name = 
REMARK  16 active torsions:
REMARK  status: ('A' for Active; 'I' for Inactive)
REMARK    1  A    between atoms: C_1  and  C_2
REMARK    2  A    between atoms: C_2  and  C_3
REMARK    3  A    between atoms: C_2  and  CA_12
REMARK    4  A    between atoms: C_3  and  C_4
REMARK    5  A    between atoms: C_3  and  O_11
REMARK    6  A    between atoms: C_7  and  O_10
REMARK    7  A    between atoms: CA_12  and  C_13
REMARK    8  A    between atoms: CA_12  and  N_35
REMARK    9  A    between atoms: N_15  and  CA_16
REMARK   10  A    between atoms: CA_16  and  C_17
REMARK   11  A    between atoms: CA_16  and  C_32
REMARK   12  A    between atoms: C_18  and  O_31
REMARK   13  A    between atoms: C_19  and  O_30
REMARK   14  A    between atoms: C_20  and  N_22
REMARK   15  A    between atoms: CA_24  and  C_28
REMARK   16  A    between atoms: C_32  and  OXT_34
REMARK                            x       y       z     vdW  Elec       q    Type
REMARK                         _______ _______ _______ _____ _____    ______ ____
ROOT
ATOM      1  CA  UNL     1      96.450 140.148  58.277  0.00  0.00    +0.213 C 
ENDROOT
BRANCH   1   2
ATOM      2  C   UNL     1      97.954 140.047  58.591  0.00  0.00    +0.183 C 
ATOM      3  C   UNL     1      98.654 141.357  58.965  0.00  0.00    +0.178 C 
ATOM      4  C   UNL     1     100.066 141.217  58.378  0.00  0.00    +0.195 C 
ATOM      5  C   UNL     1     100.105 139.787  57.814  0.00  0.00    +0.255 C 
ATOM      6  O   UNL     1      98.727 139.459  57.537  0.00  0.00    -0.345 OA
BRANCH   5   7
ATOM      7  N   UNL     1     100.684 138.778  58.680  0.00  0.00    -0.270 N 
ATOM      8  C   UNL     1     100.371 138.488  59.993  0.00  0.00    +0.122 A 
ATOM      9  CA  UNL     1     101.184 137.529  60.431  0.00  0.00    +0.099 A 
ATOM     10  N   UNL     1     102.036 137.165  59.418  0.00  0.00    -0.304 N 
ATOM     11  C   UNL     1     101.755 137.947  58.284  0.00  0.00    +0.329 A 
ATOM     12  O   UNL     1     102.340 137.901  57.219  0.00  0.00    -0.246 OA
ATOM     13  H   UNL     1     102.776 136.481  59.446  0.00  0.00    +0.171 HD
BRANCH   9  14
ATOM     14  C   UNL     1     101.185 136.960  61.791  0.00  0.00    +0.278 C 
ATOM     15  O   UNL     1     100.169 136.865  62.464  0.00  0.00    -0.294 OA
ENDBRANCH   9  14
ENDBRANCH   5   7
BRANCH   4  16
ATOM     16  O   UNL     1     101.103 141.534  59.302  0.00  0.00    -0.385 OA
ATOM     17  H   UNL     1     100.711 141.422  60.193  0.00  0.00    +0.210 HD
ENDBRANCH   4  16
BRANCH   3  18
ATOM     18  O   UNL     1      98.728 141.571  60.377  0.00  0.00    -0.386 OA
ATOM     19  H   UNL     1      98.237 140.870  60.854  0.00  0.00    +0.210 HD
ENDBRANCH   3  18
ENDBRANCH   1   2
BRANCH   1  22
ATOM     20  C   UNL     1      95.371 139.621  60.457  0.00  0.00    +0.231 C 
ATOM     21  O   UNL     1      95.784 140.659  60.961  0.00  0.00    -0.274 OA
ATOM     22  N   UNL     1      95.564 139.323  59.118  0.00  0.00    -0.299 N 
ATOM     23  H   UNL     1      95.312 138.396  58.794  0.00  0.00    +0.150 HD
BRANCH  20  24
ATOM     24  CA  UNL     1      94.496 138.606  61.238  0.00  0.00    +0.143 C 
BRANCH  24  25
ATOM     25  N   UNL     1      93.414 138.158  60.333  0.00  0.00    -0.320 NA
ATOM     26  H1  UNL     1      93.755 137.995  59.392  0.00  0.00    +0.119 HD
ATOM     27  H2  UNL     1      92.724 138.915  60.269  0.00  0.00    +0.119 HD
ENDBRANCH  24  25
BRANCH  24  29
ATOM     28  C   UNL     1      94.774 137.054  63.212  0.00  0.00    +0.012 C 
ATOM     29  C   UNL     1      95.297 137.407  61.805  0.00  0.00    +0.046 C 
BRANCH  29  30
ATOM     30  C   UNL     1      95.211 136.182  60.854  0.00  0.00    +0.168 C 
BRANCH  30  31
ATOM     31  C   UNL     1      96.553 135.860  60.205  0.00  0.00    +0.070 A 
ATOM     32  N   UNL     1      96.805 136.459  59.007  0.00  0.00    -0.254 NA
ATOM     33  C   UNL     1      97.964 136.139  58.385  0.00  0.00    +0.156 A 
ATOM     34  C   UNL     1      98.891 135.250  58.905  0.00  0.00    +0.135 A 
ATOM     35  C   UNL     1      98.629 134.661  60.132  0.00  0.00    +0.049 A 
ATOM     36  C   UNL     1      97.444 134.968  60.798  0.00  0.00    +0.029 A 
BRANCH  34  37
ATOM     37  O   UNL     1     100.048 134.927  58.268  0.00  0.00    -0.505 OA
ATOM     38  H   UNL     1     100.793 135.020  58.885  0.00  0.00    +0.292 HD
ENDBRANCH  34  37
ENDBRANCH  30  31
BRANCH  30  39
ATOM     39  O   UNL     1      94.760 135.040  61.597  0.00  0.00    -0.385 OA
ATOM     40  H   UNL     1      94.110 134.597  61.011  0.00  0.00    +0.210 HD
ENDBRANCH  30  39
ENDBRANCH  29  30
ENDBRANCH  24  29
ENDBRANCH  20  24
ENDBRANCH   1  22
BRANCH   1  41
ATOM     41  C   UNL     1      96.237 139.793  56.802  0.00  0.00    +0.328 C 
ATOM     42  O   UNL     1      96.135 140.613  55.902  0.00  0.00    -0.249 OA
BRANCH  41  43
ATOM     43  OXT UNL     1      96.146 138.458  56.583  0.00  0.00    -0.479 OA
ATOM     44  HXT UNL     1      96.975 138.007  56.847  0.00  0.00    +0.295 HD
ENDBRANCH  41  43
ENDBRANCH   1  41
TORSDOF 15
ENDMDL
MODEL 7
REMARK VINA RESULT:     0.002      7.371      9.401
REMARK INTER + INTRA:          -3.405
REMARK INTER:                   0.000
REMARK INTRA:                  -3.405
REMARK UNBOUND:                -3.409
REMARK  Name = 
REMARK  16 active torsions:
REMARK  status: ('A' for Active; 'I' for Inactive)
REMARK    1  A    between atoms: C_1  and  C_2
REMARK    2  A    between atoms: C_2  and  C_3
REMARK    3  A    between atoms: C_2  and  CA_12
REMARK    4  A    between atoms: C_3  and  C_4
REMARK    5  A    between atoms: C_3  and  O_11
REMARK    6  A    between atoms: C_7  and  O_10
REMARK    7  A    between atoms: CA_12  and  C_13
REMARK    8  A    between atoms: CA_12  and  N_35
REMARK    9  A    between atoms: N_15  and  CA_16
REMARK   10  A    between atoms: CA_16  and  C_17
REMARK   11  A    between atoms: CA_16  and  C_32
REMARK   12  A    between atoms: C_18  and  O_31
REMARK   13  A    between atoms: C_19  and  O_30
REMARK   14  A    between atoms: C_20  and  N_22
REMARK   15  A    between atoms: CA_24  and  C_28
REMARK   16  A    between atoms: C_32  and  OXT_34
REMARK                            x       y       z     vdW  Elec       q    Type
REMARK                         _______ _______ _______ _____ _____    ______ ____
ROOT
ATOM      1  CA  UNL     1      90.774 137.699  66.638  0.00  0.00    +0.213 C 
ENDROOT
BRANCH   1   2
ATOM      2  C   UNL     1      91.207 137.177  68.020  0.00  0.00    +0.183 C 
ATOM      3  C   UNL     1      90.138 136.429  68.823  0.00  0.00    +0.178 C 
ATOM      4  C   UNL     1      90.429 136.799  70.284  0.00  0.00    +0.195 C 
ATOM      5  C   UNL     1      91.717 137.637  70.217  0.00  0.00    +0.255 C 
ATOM      6  O   UNL     1      91.729 138.193  68.885  0.00  0.00    -0.345 OA
BRANCH   5   7
ATOM      7  N   UNL     1      92.954 136.921  70.460  0.00  0.00    -0.270 N 
ATOM      8  C   UNL     1      93.412 135.766  69.859  0.00  0.00    +0.122 A 
ATOM      9  CA  UNL     1      94.568 135.414  70.419  0.00  0.00    +0.099 A 
ATOM     10  N   UNL     1      94.896 136.332  71.385  0.00  0.00    -0.304 N 
ATOM     11  C   UNL     1      93.885 137.307  71.450  0.00  0.00    +0.329 A 
ATOM     12  O   UNL     1      93.847 138.251  72.216  0.00  0.00    -0.246 OA
ATOM     13  H   UNL     1      95.699 136.331  71.995  0.00  0.00    +0.171 HD
BRANCH   9  14
ATOM     14  C   UNL     1      95.362 134.222  70.072  0.00  0.00    +0.278 C 
ATOM     15  O   UNL     1      95.380 133.750  68.945  0.00  0.00    -0.294 OA
ENDBRANCH   9  14
ENDBRANCH   5   7
BRANCH   4  16
ATOM     16  O   UNL     1      90.481 135.676  71.159  0.00  0.00    -0.385 OA
ATOM     17  H   UNL     1      91.363 135.707  71.584  0.00  0.00    +0.210 HD
ENDBRANCH   4  16
BRANCH   3  18
ATOM     18  O   UNL     1      90.198 135.010  68.654  0.00  0.00    -0.386 OA
ATOM     19  H   UNL     1      89.663 134.562  69.342  0.00  0.00    +0.210 HD
ENDBRANCH   3  18
ENDBRANCH   1   2
BRANCH   1  22
ATOM     20  C   UNL     1      91.472 135.879  65.091  0.00  0.00    +0.231 C 
ATOM     21  O   UNL     1      90.634 135.110  65.548  0.00  0.00    -0.274 OA
ATOM     22  N   UNL     1      91.557 137.201  65.493  0.00  0.00    -0.299 N 
ATOM     23  H   UNL     1      92.349 137.747  65.172  0.00  0.00    +0.150 HD
BRANCH  20  24
ATOM     24  CA  UNL     1      92.430 135.477  63.938  0.00  0.00    +0.143 C 
BRANCH  24  25
ATOM     25  N   UNL     1      92.504 136.618  62.999  0.00  0.00    -0.320 NA
ATOM     26  H1  UNL     1      93.429 137.033  62.985  0.00  0.00    +0.119 HD
ATOM     27  H2  UNL     1      91.860 137.343  63.334  0.00  0.00    +0.119 HD
ENDBRANCH  24  25
BRANCH  24  29
ATOM     28  C   UNL     1      94.329 133.846  63.596  0.00  0.00    +0.012 C 
ATOM     29  C   UNL     1      93.837 135.048  64.426  0.00  0.00    +0.046 C 
BRANCH  29  30
ATOM     30  C   UNL     1      94.839 136.233  64.341  0.00  0.00    +0.168 C 
BRANCH  30  31
ATOM     31  C   UNL     1      95.280 136.715  65.719  0.00  0.00    +0.070 A 
ATOM     32  N   UNL     1      94.533 137.705  66.283  0.00  0.00    -0.254 NA
ATOM     33  C   UNL     1      94.946 138.189  67.478  0.00  0.00    +0.156 A 
ATOM     34  C   UNL     1      96.069 137.726  68.144  0.00  0.00    +0.135 A 
ATOM     35  C   UNL     1      96.810 136.707  67.567  0.00  0.00    +0.049 A 
ATOM     36  C   UNL     1      96.413 136.187  66.336  0.00  0.00    +0.029 A 
BRANCH  34  37
ATOM     37  O   UNL     1      96.481 138.226  69.341  0.00  0.00    -0.505 OA
ATOM     38  H   UNL     1      96.026 137.756  70.060  0.00  0.00    +0.292 HD
ENDBRANCH  34  37
ENDBRANCH  30  31
BRANCH  30  39
ATOM     39  O   UNL     1      95.991 135.822  63.592  0.00  0.00    -0.385 OA
ATOM     40  H   UNL     1      95.632 135.445  62.760  0.00  0.00    +0.210 HD
ENDBRANCH  30  39
ENDBRANCH  29  30
ENDBRANCH  24  29
ENDBRANCH  20  24
ENDBRANCH   1  22
BRANCH   1  41
ATOM     41  C   UNL     1      90.814 139.230  66.663  0.00  0.00    +0.328 C 
ATOM     42  O   UNL     1      89.842 139.943  66.860  0.00  0.00    -0.249 OA
BRANCH  41  43
ATOM     43  OXT UNL     1      92.048 139.735  66.417  0.00  0.00    -0.479 OA
ATOM     44  HXT UNL     1      92.408 140.170  67.217  0.00  0.00    +0.295 HD
ENDBRANCH  41  43
ENDBRANCH   1  41
TORSDOF 15
ENDMDL
MODEL 8
REMARK VINA RESULT:     0.003      4.882      6.828
REMARK INTER + INTRA:          -3.404
REMARK INTER:                   0.000
REMARK INTRA:                  -3.404
REMARK UNBOUND:                -3.409
REMARK  Name = 
REMARK  16 active torsions:
REMARK  status: ('A' for Active; 'I' for Inactive)
REMARK    1  A    between atoms: C_1  and  C_2
REMARK    2  A    between atoms: C_2  and  C_3
REMARK    3  A    between atoms: C_2  and  CA_12
REMARK    4  A    between atoms: C_3  and  C_4
REMARK    5  A    between atoms: C_3  and  O_11
REMARK    6  A    between atoms: C_7  and  O_10
REMARK    7  A    between atoms: CA_12  and  C_13
REMARK    8  A    between atoms: CA_12  and  N_35
REMARK    9  A    between atoms: N_15  and  CA_16
REMARK   10  A    between atoms: CA_16  and  C_17
REMARK   11  A    between atoms: CA_16  and  C_32
REMARK   12  A    between atoms: C_18  and  O_31
REMARK   13  A    between atoms: C_19  and  O_30
REMARK   14  A    between atoms: C_20  and  N_22
REMARK   15  A    between atoms: CA_24  and  C_28
REMARK   16  A    between atoms: C_32  and  OXT_34
REMARK                            x       y       z     vdW  Elec       q    Type
REMARK                         _______ _______ _______ _____ _____    ______ ____
ROOT
ATOM      1  CA  UNL     1      91.603 143.766  71.075  0.00  0.00    +0.213 C 
ENDROOT
BRANCH   1   2
ATOM      2  C   UNL     1      92.913 143.031  70.735  0.00  0.00    +0.183 C 
ATOM      3  C   UNL     1      93.603 142.310  71.898  0.00  0.00    +0.178 C 
ATOM      4  C   UNL     1      95.102 142.460  71.605  0.00  0.00    +0.195 C 
ATOM      5  C   UNL     1      95.156 143.154  70.234  0.00  0.00    +0.255 C 
ATOM      6  O   UNL     1      93.906 143.868  70.130  0.00  0.00    -0.345 OA
BRANCH   5   7
ATOM      7  N   UNL     1      95.320 142.282  69.087  0.00  0.00    -0.270 N 
ATOM      8  C   UNL     1      94.582 141.168  68.740  0.00  0.00    +0.122 A 
ATOM      9  CA  UNL     1      95.105 140.625  67.642  0.00  0.00    +0.099 A 
ATOM     10  N   UNL     1      96.184 141.373  67.243  0.00  0.00    -0.304 N 
ATOM     11  C   UNL     1      96.361 142.437  68.145  0.00  0.00    +0.329 A 
ATOM     12  O   UNL     1      97.240 143.276  68.101  0.00  0.00    -0.246 OA
ATOM     13  H   UNL     1      96.798 141.208  66.460  0.00  0.00    +0.171 HD
BRANCH   9  14
ATOM     14  C   UNL     1      94.618 139.406  66.972  0.00  0.00    +0.278 C 
ATOM     15  O   UNL     1      93.440 139.083  66.972  0.00  0.00    -0.294 OA
ENDBRANCH   9  14
ENDBRANCH   5   7
BRANCH   4  16
ATOM     16  O   UNL     1      95.827 141.237  71.695  0.00  0.00    -0.385 OA
ATOM     17  H   UNL     1      95.937 140.922  70.775  0.00  0.00    +0.210 HD
ENDBRANCH   4  16
BRANCH   3  18
ATOM     18  O   UNL     1      93.255 140.925  71.985  0.00  0.00    -0.386 OA
ATOM     19  H   UNL     1      93.321 140.501  71.104  0.00  0.00    +0.210 HD
ENDBRANCH   3  18
ENDBRANCH   1   2
BRANCH   1  22
ATOM     20  C   UNL     1      89.846 142.089  70.535  0.00  0.00    +0.231 C 
ATOM     21  O   UNL     1      90.193 141.364  71.460  0.00  0.00    -0.274 OA
ATOM     22  N   UNL     1      90.413 143.334  70.321  0.00  0.00    -0.299 N 
ATOM     23  H   UNL     1      90.173 143.828  69.468  0.00  0.00    +0.150 HD
BRANCH  20  24
ATOM     24  CA  UNL     1      88.663 141.734  69.596  0.00  0.00    +0.143 C 
BRANCH  24  25
ATOM     25  N   UNL     1      87.877 142.969  69.379  0.00  0.00    -0.320 NA
ATOM     26  H1  UNL     1      88.346 143.605  68.743  0.00  0.00    +0.119 HD
ATOM     27  H2  UNL     1      87.800 143.455  70.279  0.00  0.00    +0.119 HD
ENDBRANCH  24  25
BRANCH  24  29
ATOM     28  C   UNL     1      88.137 139.965  67.871  0.00  0.00    +0.012 C 
ATOM     29  C   UNL     1      89.108 141.099  68.254  0.00  0.00    +0.046 C 
BRANCH  29  30
ATOM     30  C   UNL     1      89.187 142.170  67.132  0.00  0.00    +0.168 C 
BRANCH  30  31
ATOM     31  C   UNL     1      90.620 142.424  66.677  0.00  0.00    +0.070 A 
ATOM     32  N   UNL     1      91.297 143.411  67.328  0.00  0.00    -0.254 NA
ATOM     33  C   UNL     1      92.549 143.693  66.897  0.00  0.00    +0.156 A 
ATOM     34  C   UNL     1      93.163 143.031  65.847  0.00  0.00    +0.135 A 
ATOM     35  C   UNL     1      92.469 142.018  65.203  0.00  0.00    +0.049 A 
ATOM     36  C   UNL     1      91.177 141.703  65.622  0.00  0.00    +0.029 A 
BRANCH  34  37
ATOM     37  O   UNL     1      94.418 143.329  65.414  0.00  0.00    -0.505 OA
ATOM     38  H   UNL     1      94.388 144.129  64.864  0.00  0.00    +0.292 HD
ENDBRANCH  34  37
ENDBRANCH  30  31
BRANCH  30  39
ATOM     39  O   UNL     1      88.404 141.735  66.011  0.00  0.00    -0.385 OA
ATOM     40  H   UNL     1      87.596 141.342  66.403  0.00  0.00    +0.210 HD
ENDBRANCH  30  39
ENDBRANCH  29  30
ENDBRANCH  24  29
ENDBRANCH  20  24
ENDBRANCH   1  22
BRANCH   1  41
ATOM     41  C   UNL     1      91.824 145.268  70.874  0.00  0.00    +0.328 C 
ATOM     42  O   UNL     1      92.100 146.053  71.770  0.00  0.00    -0.249 OA
BRANCH  41  43
ATOM     43  OXT UNL     1      91.659 145.664  69.588  0.00  0.00    -0.479 OA
ATOM     44  HXT UNL     1      92.162 146.485  69.412  0.00  0.00    +0.295 HD
ENDBRANCH  41  43
ENDBRANCH   1  41
TORSDOF 15
ENDMDL
MODEL 9
REMARK VINA RESULT:     0.003      7.010     10.170
REMARK INTER + INTRA:          -3.403
REMARK INTER:                   0.000
REMARK INTRA:                  -3.403
REMARK UNBOUND:                -3.409
REMARK  Name = 
REMARK  16 active torsions:
REMARK  status: ('A' for Active; 'I' for Inactive)
REMARK    1  A    between atoms: C_1  and  C_2
REMARK    2  A    between atoms: C_2  and  C_3
REMARK    3  A    between atoms: C_2  and  CA_12
REMARK    4  A    between atoms: C_3  and  C_4
REMARK    5  A    between atoms: C_3  and  O_11
REMARK    6  A    between atoms: C_7  and  O_10
REMARK    7  A    between atoms: CA_12  and  C_13
REMARK    8  A    between atoms: CA_12  and  N_35
REMARK    9  A    between atoms: N_15  and  CA_16
REMARK   10  A    between atoms: CA_16  and  C_17
REMARK   11  A    between atoms: CA_16  and  C_32
REMARK   12  A    between atoms: C_18  and  O_31
REMARK   13  A    between atoms: C_19  and  O_30
REMARK   14  A    between atoms: C_20  and  N_22
REMARK   15  A    between atoms: CA_24  and  C_28
REMARK   16  A    between atoms: C_32  and  OXT_34
REMARK                            x       y       z     vdW  Elec       q    Type
REMARK                         _______ _______ _______ _____ _____    ______ ____
ROOT
ATOM      1  CA  UNL     1      95.135 137.743  59.663  0.00  0.00    +0.213 C 
ENDROOT
BRANCH   1   2
ATOM      2  C   UNL     1      94.837 136.272  59.317  0.00  0.00    +0.183 C 
ATOM      3  C   UNL     1      96.026 135.442  58.822  0.00  0.00    +0.178 C 
ATOM      4  C   UNL     1      95.417 134.480  57.793  0.00  0.00    +0.195 C 
ATOM      5  C   UNL     1      93.905 134.750  57.864  0.00  0.00    +0.255 C 
ATOM      6  O   UNL     1      93.793 136.105  58.351  0.00  0.00    -0.345 OA
BRANCH   5   7
ATOM      7  N   UNL     1      93.140 133.859  58.714  0.00  0.00    -0.270 N 
ATOM      8  C   UNL     1      93.364 133.524  60.034  0.00  0.00    +0.122 A 
ATOM      9  CA  UNL     1      92.457 132.626  60.415  0.00  0.00    +0.099 A 
ATOM     10  N   UNL     1      91.617 132.364  59.362  0.00  0.00    -0.304 N 
ATOM     11  C   UNL     1      92.024 133.125  58.253  0.00  0.00    +0.329 A 
ATOM     12  O   UNL     1      91.514 133.113  57.149  0.00  0.00    -0.246 OA
ATOM     13  H   UNL     1      90.844 131.717  59.333  0.00  0.00    +0.171 HD
BRANCH   9  14
ATOM     14  C   UNL     1      92.377 132.000  61.747  0.00  0.00    +0.278 C 
ATOM     15  O   UNL     1      92.721 132.579  62.766  0.00  0.00    -0.294 OA
ENDBRANCH   9  14
ENDBRANCH   5   7
BRANCH   4  16
ATOM     16  O   UNL     1      95.800 133.121  57.985  0.00  0.00    -0.385 OA
ATOM     17  H   UNL     1      95.950 132.755  57.089  0.00  0.00    +0.210 HD
ENDBRANCH   4  16
BRANCH   3  18
ATOM     18  O   UNL     1      96.671 134.705  59.864  0.00  0.00    -0.386 OA
ATOM     19  H   UNL     1      96.004 134.323  60.473  0.00  0.00    +0.210 HD
ENDBRANCH   3  18
ENDBRANCH   1   2
BRANCH   1  22
ATOM     20  C   UNL     1      95.583 137.681  62.110  0.00  0.00    +0.231 C 
ATOM     21  O   UNL     1      96.622 137.052  61.947  0.00  0.00    -0.274 OA
ATOM     22  N   UNL     1      94.830 138.149  61.046  0.00  0.00    -0.299 N 
ATOM     23  H   UNL     1      93.919 138.549  61.245  0.00  0.00    +0.150 HD
BRANCH  20  24
ATOM     24  CA  UNL     1      95.080 138.111  63.513  0.00  0.00    +0.143 C 
BRANCH  24  25
ATOM     25  N   UNL     1      94.588 139.503  63.405  0.00  0.00    -0.320 NA
ATOM     26  H1  UNL     1      93.633 139.537  63.067  0.00  0.00    +0.119 HD
ATOM     27  H2  UNL     1      95.165 139.987  62.708  0.00  0.00    +0.119 HD
ENDBRANCH  24  25
BRANCH  24  29
ATOM     28  C   UNL     1      94.244 136.973  65.608  0.00  0.00    +0.012 C 
ATOM     29  C   UNL     1      93.999 137.168  64.099  0.00  0.00    +0.046 C 
BRANCH  29  30
ATOM     30  C   UNL     1      92.573 137.725  63.831  0.00  0.00    +0.168 C 
BRANCH  30  31
ATOM     31  C   UNL     1      91.791 136.859  62.850  0.00  0.00    +0.070 A 
ATOM     32  N   UNL     1      91.900 137.188  61.531  0.00  0.00    -0.254 NA
ATOM     33  C   UNL     1      91.165 136.470  60.650  0.00  0.00    +0.156 A 
ATOM     34  C   UNL     1      90.326 135.432  61.021  0.00  0.00    +0.135 A 
ATOM     35  C   UNL     1      90.237 135.098  62.363  0.00  0.00    +0.049 A 
ATOM     36  C   UNL     1      90.980 135.818  63.297  0.00  0.00    +0.029 A 
BRANCH  34  37
ATOM     37  O   UNL     1      89.583 134.723  60.128  0.00  0.00    -0.505 OA
ATOM     38  H   UNL     1      90.173 134.303  59.480  0.00  0.00    +0.292 HD
ENDBRANCH  34  37
ENDBRANCH  30  31
BRANCH  30  39
ATOM     39  O   UNL     1      91.857 137.798  65.072  0.00  0.00    -0.385 OA
ATOM     40  H   UNL     1      92.310 137.161  65.665  0.00  0.00    +0.210 HD
ENDBRANCH  30  39
ENDBRANCH  29  30
ENDBRANCH  24  29
ENDBRANCH  20  24
ENDBRANCH   1  22
BRANCH   1  41
ATOM     41  C   UNL     1      94.368 138.636  58.683  0.00  0.00    +0.328 C 
ATOM     42  O   UNL     1      94.851 139.129  57.674  0.00  0.00    -0.249 OA
BRANCH  41  43
ATOM     43  OXT UNL     1      93.083 138.855  59.055  0.00  0.00    -0.479 OA
ATOM     44  HXT UNL     1      92.499 138.148  58.713  0.00  0.00    +0.295 HD
ENDBRANCH  41  43
ENDBRANCH   1  41
TORSDOF 15
ENDMDL
