MODEL 1
REMARK VINA RESULT:    -6.330      0.000      0.000
REMARK INTER + INTRA:         -12.257
REMARK INTER:                 -10.400
REMARK INTRA:                  -1.857
REMARK UNBOUND:                -1.857
REMARK  Name = 456557
REMARK  15 active torsions:
REMARK  status: ('A' for Active; 'I' for Inactive)
REMARK    1  A    between atoms: O_2  and  C_17
REMARK    2  A    between atoms: O_3  and  C_18
REMARK    3  A    between atoms: O_4  and  C_22
REMARK    4  A    between atoms: O_7  and  C_27
REMARK    5  A    between atoms: O_10  and  C_35
REMARK    6  A    between atoms: N_11  and  C_19
REMARK    7  A    between atoms: N_12  and  CA_20
REMARK    8  A    between atoms: N_13  and  CA_21
REMARK    9  A    between atoms: C_16  and  CA_20
REMARK   10  A    between atoms: CA_20  and  C_22
REMARK   11  A    between atoms: CA_21  and  C_23
REMARK   12  A    between atoms: CA_21  and  C_24
REMARK   13  A    between atoms: C_23  and  C_27
REMARK   14  A    between atoms: C_23  and  C_28
REMARK   15  A    between atoms: C_27  and  C_30
REMARK                            x       y       z     vdW  Elec       q    Type
REMARK                         _______ _______ _______ _____ _____    ______ ____
ROOT
ATOM      1  CA  UNL     1     104.281 131.851  70.629  0.00  0.00    +0.213 C 
ENDROOT
BRANCH   1   3
ATOM      2  O   UNL     1     104.970 134.069  69.779  0.00  0.00    -0.345 OA
ATOM      3  C   UNL     1     104.823 133.258  70.982  0.00  0.00    +0.183 C 
ATOM      4  C   UNL     1     103.898 134.070  71.890  0.00  0.00    +0.178 C 
ATOM      5  C   UNL     1     103.009 134.824  70.907  0.00  0.00    +0.195 C 
ATOM      6  C   UNL     1     104.032 135.168  69.824  0.00  0.00    +0.255 C 
BRANCH   6   9
ATOM      7  O   UNL     1     105.282 136.826  67.886  0.00  0.00    -0.246 OA
ATOM      8  O   UNL     1     101.599 136.815  65.268  0.00  0.00    -0.268 OA
ATOM      9  N   UNL     1     103.522 135.440  68.476  0.00  0.00    -0.271 N 
ATOM     10  N   UNL     1     103.515 136.681  66.495  0.00  0.00    -0.275 N 
ATOM     11  C   UNL     1     104.184 136.325  67.638  0.00  0.00    +0.331 A 
ATOM     12  C   UNL     1     102.344 134.830  68.079  0.00  0.00    +0.098 A 
ATOM     13  C   UNL     1     101.700 135.190  66.966  0.00  0.00    +0.088 A 
ATOM     14  C   UNL     1     102.250 136.291  66.162  0.00  0.00    +0.254 A 
ATOM     15  H   UNL     1     103.907 137.435  65.952  0.00  0.00    +0.173 HD
ENDBRANCH   6   9
BRANCH   4  16
ATOM     16  O   UNL     1     104.621 135.091  72.622  0.00  0.00    -0.386 OA
ATOM     17  H   UNL     1     105.527 135.155  72.264  0.00  0.00    +0.210 HD
ENDBRANCH   4  16
BRANCH   5  18
ATOM     18  O   UNL     1     102.453 135.985  71.525  0.00  0.00    -0.385 OA
ATOM     19  H   UNL     1     101.676 136.233  70.973  0.00  0.00    +0.210 HD
ENDBRANCH   5  18
ENDBRANCH   1   3
BRANCH   1  21
ATOM     20  O   UNL     1     102.109 130.149  69.802  0.00  0.00    -0.274 OA
ATOM     21  N   UNL     1     103.156 131.349  71.443  0.00  0.00    -0.299 N 
ATOM     22  C   UNL     1     102.083 130.652  70.917  0.00  0.00    +0.231 C 
ATOM     23  H   UNL     1     102.948 131.800  72.331  0.00  0.00    +0.150 HD
BRANCH  22  24
ATOM     24  CA  UNL     1     100.820 130.600  71.836  0.00  0.00    +0.143 C 
BRANCH  24  25
ATOM     25  N   UNL     1     100.575 129.170  72.187  0.00  0.00    -0.320 NA
ATOM     26  H1  UNL     1     100.901 129.014  73.143  0.00  0.00    +0.119 HD
ATOM     27  H2  UNL     1      99.564 129.035  72.241  0.00  0.00    +0.119 HD
ENDBRANCH  24  25
BRANCH  24  28
ATOM     28  C   UNL     1     100.976 131.472  73.116  0.00  0.00    +0.046 C 
ATOM     29  C   UNL     1     101.062 130.636  74.416  0.00  0.00    +0.012 C 
BRANCH  28  30
ATOM     30  C   UNL     1      99.895 132.589  73.214  0.00  0.00    +0.168 C 
BRANCH  30  32
ATOM     31  N   UNL     1      98.076 132.613  71.525  0.00  0.00    -0.254 NA
ATOM     32  C   UNL     1      98.489 132.225  72.759  0.00  0.00    +0.070 A 
ATOM     33  C   UNL     1      97.678 131.452  73.594  0.00  0.00    +0.029 A 
ATOM     34  C   UNL     1      96.420 131.055  73.146  0.00  0.00    +0.049 A 
ATOM     35  C   UNL     1      96.859 132.202  71.110  0.00  0.00    +0.156 A 
ATOM     36  C   UNL     1      96.010 131.425  71.878  0.00  0.00    +0.135 A 
BRANCH  36  37
ATOM     37  O   UNL     1      94.795 131.001  71.433  0.00  0.00    -0.505 OA
ATOM     38  H   UNL     1      94.912 130.152  70.976  0.00  0.00    +0.292 HD
ENDBRANCH  36  37
ENDBRANCH  30  32
BRANCH  30  39
ATOM     39  O   UNL     1      99.824 133.065  74.567  0.00  0.00    -0.385 OA
ATOM     40  H   UNL     1      98.960 132.787  74.915  0.00  0.00    +0.210 HD
ENDBRANCH  30  39
ENDBRANCH  28  30
ENDBRANCH  24  28
ENDBRANCH  22  24
ENDBRANCH   1  21
BRANCH   1  42
ATOM     41  OXT UNL     1     106.395 130.908  71.449  0.00  0.00    -0.249 OA
ATOM     42  C   UNL     1     105.431 130.827  70.696  0.00  0.00    +0.328 C 
BRANCH  42  43
ATOM     43  O   UNL     1     105.296 129.777  69.854  0.00  0.00    -0.479 OA
ATOM     44  H   UNL     1     104.452 129.784  69.339  0.00  0.00    +0.295 HD
ENDBRANCH  42  43
ENDBRANCH   1  42
TORSDOF 14
ENDMDL
MODEL 2
REMARK VINA RESULT:    -6.124      1.989      2.960
REMARK INTER + INTRA:         -11.918
REMARK INTER:                  -9.308
REMARK INTRA:                  -2.610
REMARK UNBOUND:                -1.857
REMARK  Name = 456557
REMARK  15 active torsions:
REMARK  status: ('A' for Active; 'I' for Inactive)
REMARK    1  A    between atoms: O_2  and  C_17
REMARK    2  A    between atoms: O_3  and  C_18
REMARK    3  A    between atoms: O_4  and  C_22
REMARK    4  A    between atoms: O_7  and  C_27
REMARK    5  A    between atoms: O_10  and  C_35
REMARK    6  A    between atoms: N_11  and  C_19
REMARK    7  A    between atoms: N_12  and  CA_20
REMARK    8  A    between atoms: N_13  and  CA_21
REMARK    9  A    between atoms: C_16  and  CA_20
REMARK   10  A    between atoms: CA_20  and  C_22
REMARK   11  A    between atoms: CA_21  and  C_23
REMARK   12  A    between atoms: CA_21  and  C_24
REMARK   13  A    between atoms: C_23  and  C_27
REMARK   14  A    between atoms: C_23  and  C_28
REMARK   15  A    between atoms: C_27  and  C_30
REMARK                            x       y       z     vdW  Elec       q    Type
REMARK                         _______ _______ _______ _____ _____    ______ ____
ROOT
ATOM      1  CA  UNL     1     101.483 132.413  71.928  0.00  0.00    +0.213 C 
ENDROOT
BRANCH   1   3
ATOM      2  O   UNL     1     103.352 132.554  70.316  0.00  0.00    -0.345 OA
ATOM      3  C   UNL     1     103.017 132.370  71.723  0.00  0.00    +0.183 C 
ATOM      4  C   UNL     1     103.773 133.482  72.452  0.00  0.00    +0.178 C 
ATOM      5  C   UNL     1     103.817 134.612  71.429  0.00  0.00    +0.195 C 
ATOM      6  C   UNL     1     104.050 133.809  70.149  0.00  0.00    +0.255 C 
BRANCH   6   9
ATOM      7  O   UNL     1     105.713 135.433  68.517  0.00  0.00    -0.246 OA
ATOM      8  O   UNL     1     102.206 136.778  66.005  0.00  0.00    -0.268 OA
ATOM      9  N   UNL     1     103.656 134.431  68.881  0.00  0.00    -0.271 N 
ATOM     10  N   UNL     1     104.000 135.969  67.154  0.00  0.00    -0.275 N 
ATOM     11  C   UNL     1     104.534 135.264  68.203  0.00  0.00    +0.331 A 
ATOM     12  C   UNL     1     102.377 134.205  68.402  0.00  0.00    +0.098 A 
ATOM     13  C   UNL     1     101.868 134.901  67.383  0.00  0.00    +0.088 A 
ATOM     14  C   UNL     1     102.688 135.962  66.779  0.00  0.00    +0.254 A 
ATOM     15  H   UNL     1     104.576 136.690  66.748  0.00  0.00    +0.173 HD
ENDBRANCH   6   9
BRANCH   4  16
ATOM     16  O   UNL     1     105.156 133.125  72.697  0.00  0.00    -0.386 OA
ATOM     17  H   UNL     1     105.255 132.159  72.594  0.00  0.00    +0.210 HD
ENDBRANCH   4  16
BRANCH   5  18
ATOM     18  O   UNL     1     104.890 135.507  71.719  0.00  0.00    -0.385 OA
ATOM     19  H   UNL     1     105.712 135.027  71.467  0.00  0.00    +0.210 HD
ENDBRANCH   5  18
ENDBRANCH   1   3
BRANCH   1  21
ATOM     20  O   UNL     1     100.691 133.826  74.310  0.00  0.00    -0.274 OA
ATOM     21  N   UNL     1     100.966 131.850  73.192  0.00  0.00    -0.299 N 
ATOM     22  C   UNL     1     100.748 132.604  74.331  0.00  0.00    +0.231 C 
ATOM     23  H   UNL     1     101.096 130.859  73.382  0.00  0.00    +0.150 HD
BRANCH  22  24
ATOM     24  CA  UNL     1     100.632 131.778  75.652  0.00  0.00    +0.143 C 
BRANCH  24  25
ATOM     25  N   UNL     1     101.384 132.513  76.713  0.00  0.00    -0.320 NA
ATOM     26  H1  UNL     1     102.263 132.020  76.882  0.00  0.00    +0.119 HD
ATOM     27  H2  UNL     1     101.671 133.411  76.319  0.00  0.00    +0.119 HD
ENDBRANCH  24  25
BRANCH  24  28
ATOM     28  C   UNL     1      99.154 131.538  76.079  0.00  0.00    +0.046 C 
ATOM     29  C   UNL     1      98.975 131.411  77.611  0.00  0.00    +0.012 C 
BRANCH  28  30
ATOM     30  C   UNL     1      98.497 130.349  75.317  0.00  0.00    +0.168 C 
BRANCH  30  32
ATOM     31  N   UNL     1      97.970 130.839  72.941  0.00  0.00    -0.254 NA
ATOM     32  C   UNL     1      97.512 130.704  74.212  0.00  0.00    +0.070 A 
ATOM     33  C   UNL     1      96.154 130.824  74.519  0.00  0.00    +0.029 A 
ATOM     34  C   UNL     1      95.243 131.074  73.495  0.00  0.00    +0.049 A 
ATOM     35  C   UNL     1      97.064 131.066  71.966  0.00  0.00    +0.156 A 
ATOM     36  C   UNL     1      95.705 131.183  72.195  0.00  0.00    +0.135 A 
BRANCH  36  37
ATOM     37  O   UNL     1      94.804 131.390  71.196  0.00  0.00    -0.505 OA
ATOM     38  H   UNL     1      95.285 131.666  70.398  0.00  0.00    +0.292 HD
ENDBRANCH  36  37
ENDBRANCH  30  32
BRANCH  30  39
ATOM     39  O   UNL     1      99.524 129.517  74.757  0.00  0.00    -0.385 OA
ATOM     40  H   UNL     1      99.871 128.974  75.485  0.00  0.00    +0.210 HD
ENDBRANCH  30  39
ENDBRANCH  28  30
ENDBRANCH  24  28
ENDBRANCH  22  24
ENDBRANCH   1  21
BRANCH   1  42
ATOM     41  OXT UNL     1      99.922 132.194  70.044  0.00  0.00    -0.249 OA
ATOM     42  C   UNL     1     100.789 131.696  70.752  0.00  0.00    +0.328 C 
BRANCH  42  43
ATOM     43  O   UNL     1     101.229 130.437  70.526  0.00  0.00    -0.479 OA
ATOM     44  H   UNL     1     102.201 130.379  70.350  0.00  0.00    +0.295 HD
ENDBRANCH  42  43
ENDBRANCH   1  42
TORSDOF 14
ENDMDL
MODEL 3
REMARK VINA RESULT:    -6.085      8.239     11.824
REMARK INTER + INTRA:         -11.854
REMARK INTER:                  -9.276
REMARK INTRA:                  -2.578
REMARK UNBOUND:                -1.857
REMARK  Name = 456557
REMARK  15 active torsions:
REMARK  status: ('A' for Active; 'I' for Inactive)
REMARK    1  A    between atoms: O_2  and  C_17
REMARK    2  A    between atoms: O_3  and  C_18
REMARK    3  A    between atoms: O_4  and  C_22
REMARK    4  A    between atoms: O_7  and  C_27
REMARK    5  A    between atoms: O_10  and  C_35
REMARK    6  A    between atoms: N_11  and  C_19
REMARK    7  A    between atoms: N_12  and  CA_20
REMARK    8  A    between atoms: N_13  and  CA_21
REMARK    9  A    between atoms: C_16  and  CA_20
REMARK   10  A    between atoms: CA_20  and  C_22
REMARK   11  A    between atoms: CA_21  and  C_23
REMARK   12  A    between atoms: CA_21  and  C_24
REMARK   13  A    between atoms: C_23  and  C_27
REMARK   14  A    between atoms: C_23  and  C_28
REMARK   15  A    between atoms: C_27  and  C_30
REMARK                            x       y       z     vdW  Elec       q    Type
REMARK                         _______ _______ _______ _____ _____    ______ ____
ROOT
ATOM      1  CA  UNL     1      99.969 138.068  62.312  0.00  0.00    +0.213 C 
ENDROOT
BRANCH   1   3
ATOM      2  O   UNL     1     101.271 137.528  64.344  0.00  0.00    -0.345 OA
ATOM      3  C   UNL     1      99.931 137.801  63.837  0.00  0.00    +0.183 C 
ATOM      4  C   UNL     1      99.436 138.989  64.664  0.00  0.00    +0.178 C 
ATOM      5  C   UNL     1     100.713 139.758  64.981  0.00  0.00    +0.195 C 
ATOM      6  C   UNL     1     101.675 138.595  65.231  0.00  0.00    +0.255 C 
BRANCH   6   9
ATOM      7  O   UNL     1     103.757 137.388  66.740  0.00  0.00    -0.246 OA
ATOM      8  O   UNL     1     106.811 140.328  65.173  0.00  0.00    -0.268 OA
ATOM      9  N   UNL     1     103.108 138.858  65.070  0.00  0.00    -0.271 N 
ATOM     10  N   UNL     1     105.316 138.738  65.829  0.00  0.00    -0.275 N 
ATOM     11  C   UNL     1     104.033 138.260  65.913  0.00  0.00    +0.331 A 
ATOM     12  C   UNL     1     103.512 139.749  64.090  0.00  0.00    +0.098 A 
ATOM     13  C   UNL     1     104.763 140.210  64.022  0.00  0.00    +0.088 A 
ATOM     14  C   UNL     1     105.727 139.777  65.045  0.00  0.00    +0.254 A 
ATOM     15  H   UNL     1     105.967 138.428  66.535  0.00  0.00    +0.173 HD
ENDBRANCH   6   9
BRANCH   4  16
ATOM     16  O   UNL     1      98.905 138.571  65.946  0.00  0.00    -0.386 OA
ATOM     17  H   UNL     1      99.078 137.617  66.063  0.00  0.00    +0.210 HD
ENDBRANCH   4  16
BRANCH   5  18
ATOM     18  O   UNL     1     100.531 140.577  66.136  0.00  0.00    -0.385 OA
ATOM     19  H   UNL     1     101.435 140.855  66.411  0.00  0.00    +0.210 HD
ENDBRANCH   5  18
ENDBRANCH   1   3
BRANCH   1  21
ATOM     20  O   UNL     1      97.679 139.658  61.585  0.00  0.00    -0.274 OA
ATOM     21  N   UNL     1      98.783 137.656  61.536  0.00  0.00    -0.299 N 
ATOM     22  C   UNL     1      97.668 138.455  61.361  0.00  0.00    +0.231 C 
ATOM     23  H   UNL     1      98.591 136.664  61.414  0.00  0.00    +0.150 HD
BRANCH  22  24
ATOM     24  CA  UNL     1      96.380 137.696  60.905  0.00  0.00    +0.143 C 
BRANCH  24  25
ATOM     25  N   UNL     1      95.205 138.548  61.255  0.00  0.00    -0.320 NA
ATOM     26  H1  UNL     1      95.442 139.521  61.052  0.00  0.00    +0.119 HD
ATOM     27  H2  UNL     1      94.458 138.328  60.594  0.00  0.00    +0.119 HD
ENDBRANCH  24  25
BRANCH  24  28
ATOM     28  C   UNL     1      96.392 137.357  59.386  0.00  0.00    +0.046 C 
ATOM     29  C   UNL     1      95.072 137.726  58.669  0.00  0.00    +0.012 C 
BRANCH  28  30
ATOM     30  C   UNL     1      96.814 135.884  59.106  0.00  0.00    +0.168 C 
BRANCH  30  32
ATOM     31  N   UNL     1      99.295 135.928  59.040  0.00  0.00    -0.254 NA
ATOM     32  C   UNL     1      98.136 135.676  58.380  0.00  0.00    +0.070 A 
ATOM     33  C   UNL     1      98.130 135.175  57.076  0.00  0.00    +0.029 A 
ATOM     34  C   UNL     1      99.341 134.914  56.439  0.00  0.00    +0.049 A 
ATOM     35  C   UNL     1     100.455 135.652  58.406  0.00  0.00    +0.156 A 
ATOM     36  C   UNL     1     100.522 135.143  57.121  0.00  0.00    +0.135 A 
BRANCH  36  37
ATOM     37  O   UNL     1     101.701 134.849  56.506  0.00  0.00    -0.505 OA
ATOM     38  H   UNL     1     101.534 134.737  55.556  0.00  0.00    +0.292 HD
ENDBRANCH  36  37
ENDBRANCH  30  32
BRANCH  30  39
ATOM     39  O   UNL     1      96.858 135.158  60.343  0.00  0.00    -0.385 OA
ATOM     40  H   UNL     1      95.947 134.883  60.537  0.00  0.00    +0.210 HD
ENDBRANCH  30  39
ENDBRANCH  28  30
ENDBRANCH  24  28
ENDBRANCH  22  24
ENDBRANCH   1  21
BRANCH   1  42
ATOM     41  OXT UNL     1     102.201 137.985  61.290  0.00  0.00    -0.249 OA
ATOM     42  C   UNL     1     101.213 137.390  61.704  0.00  0.00    +0.328 C 
BRANCH  42  43
ATOM     43  O   UNL     1     101.156 136.039  61.676  0.00  0.00    -0.479 OA
ATOM     44  H   UNL     1     100.461 135.681  61.070  0.00  0.00    +0.295 HD
ENDBRANCH  42  43
ENDBRANCH   1  42
TORSDOF 14
ENDMDL
MODEL 4
REMARK VINA RESULT:    -6.052     10.346     13.336
REMARK INTER + INTRA:         -11.800
REMARK INTER:                  -9.400
REMARK INTRA:                  -2.400
REMARK UNBOUND:                -1.857
REMARK  Name = 456557
REMARK  15 active torsions:
REMARK  status: ('A' for Active; 'I' for Inactive)
REMARK    1  A    between atoms: O_2  and  C_17
REMARK    2  A    between atoms: O_3  and  C_18
REMARK    3  A    between atoms: O_4  and  C_22
REMARK    4  A    between atoms: O_7  and  C_27
REMARK    5  A    between atoms: O_10  and  C_35
REMARK    6  A    between atoms: N_11  and  C_19
REMARK    7  A    between atoms: N_12  and  CA_20
REMARK    8  A    between atoms: N_13  and  CA_21
REMARK    9  A    between atoms: C_16  and  CA_20
REMARK   10  A    between atoms: CA_20  and  C_22
REMARK   11  A    between atoms: CA_21  and  C_23
REMARK   12  A    between atoms: CA_21  and  C_24
REMARK   13  A    between atoms: C_23  and  C_27
REMARK   14  A    between atoms: C_23  and  C_28
REMARK   15  A    between atoms: C_27  and  C_30
REMARK                            x       y       z     vdW  Elec       q    Type
REMARK                         _______ _______ _______ _____ _____    ______ ____
ROOT
ATOM      1  CA  UNL     1      98.703 136.431  59.475  0.00  0.00    +0.213 C 
ENDROOT
BRANCH   1   3
ATOM      2  O   UNL     1      99.091 134.395  58.126  0.00  0.00    -0.345 OA
ATOM      3  C   UNL     1      99.610 135.200  59.225  0.00  0.00    +0.183 C 
ATOM      4  C   UNL     1     101.038 135.555  58.807  0.00  0.00    +0.178 C 
ATOM      5  C   UNL     1     100.958 135.618  57.286  0.00  0.00    +0.195 C 
ATOM      6  C   UNL     1     100.014 134.446  57.015  0.00  0.00    +0.255 C 
BRANCH   6   9
ATOM      7  O   UNL     1     101.001 133.547  54.508  0.00  0.00    -0.246 OA
ATOM      8  O   UNL     1      97.520 135.393  52.296  0.00  0.00    -0.268 OA
ATOM      9  N   UNL     1      99.270 134.456  55.752  0.00  0.00    -0.271 N 
ATOM     10  N   UNL     1      99.181 134.311  53.420  0.00  0.00    -0.275 N 
ATOM     11  C   UNL     1      99.880 134.056  54.572  0.00  0.00    +0.331 A 
ATOM     12  C   UNL     1      97.964 134.917  55.756  0.00  0.00    +0.098 A 
ATOM     13  C   UNL     1      97.296 135.166  54.627  0.00  0.00    +0.088 A 
ATOM     14  C   UNL     1      97.990 134.973  53.345  0.00  0.00    +0.254 A 
ATOM     15  H   UNL     1      99.669 134.170  52.548  0.00  0.00    +0.173 HD
ENDBRANCH   6   9
BRANCH   4  16
ATOM     16  O   UNL     1     101.969 134.485  59.103  0.00  0.00    -0.386 OA
ATOM     17  H   UNL     1     102.039 133.902  58.322  0.00  0.00    +0.210 HD
ENDBRANCH   4  16
BRANCH   5  18
ATOM     18  O   UNL     1     102.249 135.428  56.708  0.00  0.00    -0.385 OA
ATOM     19  H   UNL     1     102.381 134.453  56.667  0.00  0.00    +0.210 HD
ENDBRANCH   5  18
ENDBRANCH   1   3
BRANCH   1  21
ATOM     20  O   UNL     1     100.364 138.693  60.123  0.00  0.00    -0.274 OA
ATOM     21  N   UNL     1      98.850 137.109  60.778  0.00  0.00    -0.299 N 
ATOM     22  C   UNL     1      99.783 138.101  61.022  0.00  0.00    +0.231 C 
ATOM     23  H   UNL     1      98.535 136.635  61.621  0.00  0.00    +0.150 HD
BRANCH  22  24
ATOM     24  CA  UNL     1     100.076 138.369  62.534  0.00  0.00    +0.143 C 
BRANCH  24  25
ATOM     25  N   UNL     1     101.543 138.609  62.675  0.00  0.00    -0.320 NA
ATOM     26  H1  UNL     1     102.020 138.146  61.899  0.00  0.00    +0.119 HD
ATOM     27  H2  UNL     1     101.708 139.605  62.512  0.00  0.00    +0.119 HD
ENDBRANCH  24  25
BRANCH  24  28
ATOM     28  C   UNL     1      99.256 139.566  63.098  0.00  0.00    +0.046 C 
ATOM     29  C   UNL     1     100.125 140.591  63.866  0.00  0.00    +0.012 C 
BRANCH  28  30
ATOM     30  C   UNL     1      98.024 139.107  63.934  0.00  0.00    +0.168 C 
BRANCH  30  32
ATOM     31  N   UNL     1      96.502 138.440  62.090  0.00  0.00    -0.254 NA
ATOM     32  C   UNL     1      96.671 139.145  63.238  0.00  0.00    +0.070 A 
ATOM     33  C   UNL     1      95.620 139.855  63.825  0.00  0.00    +0.029 A 
ATOM     34  C   UNL     1      94.362 139.828  63.227  0.00  0.00    +0.049 A 
ATOM     35  C   UNL     1      95.269 138.419  61.540  0.00  0.00    +0.156 A 
ATOM     36  C   UNL     1      94.181 139.087  62.074  0.00  0.00    +0.135 A 
BRANCH  36  37
ATOM     37  O   UNL     1      92.939 139.035  61.517  0.00  0.00    -0.505 OA
ATOM     38  H   UNL     1      92.342 139.594  62.041  0.00  0.00    +0.292 HD
ENDBRANCH  36  37
ENDBRANCH  30  32
BRANCH  30  39
ATOM     39  O   UNL     1      98.247 137.773  64.416  0.00  0.00    -0.385 OA
ATOM     40  H   UNL     1      99.182 137.567  64.244  0.00  0.00    +0.210 HD
ENDBRANCH  30  39
ENDBRANCH  28  30
ENDBRANCH  24  28
ENDBRANCH  22  24
ENDBRANCH   1  21
BRANCH   1  42
ATOM     41  OXT UNL     1      96.475 136.475  58.442  0.00  0.00    -0.249 OA
ATOM     42  C   UNL     1      97.227 136.023  59.298  0.00  0.00    +0.328 C 
BRANCH  42  43
ATOM     43  O   UNL     1      96.799 135.080  60.168  0.00  0.00    -0.479 OA
ATOM     44  H   UNL     1      95.823 134.920  60.137  0.00  0.00    +0.295 HD
ENDBRANCH  42  43
ENDBRANCH   1  42
TORSDOF 14
ENDMDL
MODEL 5
REMARK VINA RESULT:    -6.039      2.782      5.483
REMARK INTER + INTRA:         -11.779
REMARK INTER:                  -9.144
REMARK INTRA:                  -2.635
REMARK UNBOUND:                -1.857
REMARK  Name = 456557
REMARK  15 active torsions:
REMARK  status: ('A' for Active; 'I' for Inactive)
REMARK    1  A    between atoms: O_2  and  C_17
REMARK    2  A    between atoms: O_3  and  C_18
REMARK    3  A    between atoms: O_4  and  C_22
REMARK    4  A    between atoms: O_7  and  C_27
REMARK    5  A    between atoms: O_10  and  C_35
REMARK    6  A    between atoms: N_11  and  C_19
REMARK    7  A    between atoms: N_12  and  CA_20
REMARK    8  A    between atoms: N_13  and  CA_21
REMARK    9  A    between atoms: C_16  and  CA_20
REMARK   10  A    between atoms: CA_20  and  C_22
REMARK   11  A    between atoms: CA_21  and  C_23
REMARK   12  A    between atoms: CA_21  and  C_24
REMARK   13  A    between atoms: C_23  and  C_27
REMARK   14  A    between atoms: C_23  and  C_28
REMARK   15  A    between atoms: C_27  and  C_30
REMARK                            x       y       z     vdW  Elec       q    Type
REMARK                         _______ _______ _______ _____ _____    ______ ____
ROOT
ATOM      1  CA  UNL     1      98.773 132.371  73.319  0.00  0.00    +0.213 C 
ENDROOT
BRANCH   1   3
ATOM      2  O   UNL     1      99.770 132.200  71.063  0.00  0.00    -0.345 OA
ATOM      3  C   UNL     1      99.366 131.435  72.237  0.00  0.00    +0.183 C 
ATOM      4  C   UNL     1     100.632 130.700  72.678  0.00  0.00    +0.178 C 
ATOM      5  C   UNL     1     101.755 131.645  72.264  0.00  0.00    +0.195 C 
ATOM      6  C   UNL     1     101.208 132.145  70.926  0.00  0.00    +0.255 C 
BRANCH   6   9
ATOM      7  O   UNL     1     103.744 132.580  69.724  0.00  0.00    -0.246 OA
ATOM      8  O   UNL     1     103.283 137.067  70.000  0.00  0.00    -0.268 OA
ATOM      9  N   UNL     1     101.709 133.432  70.431  0.00  0.00    -0.271 N 
ATOM     10  N   UNL     1     103.446 134.814  69.698  0.00  0.00    -0.275 N 
ATOM     11  C   UNL     1     102.995 133.538  69.925  0.00  0.00    +0.331 A 
ATOM     12  C   UNL     1     100.887 134.542  70.524  0.00  0.00    +0.098 A 
ATOM     13  C   UNL     1     101.338 135.779  70.305  0.00  0.00    +0.088 A 
ATOM     14  C   UNL     1     102.763 135.960  69.989  0.00  0.00    +0.254 A 
ATOM     15  H   UNL     1     104.424 134.922  69.477  0.00  0.00    +0.173 HD
ENDBRANCH   6   9
BRANCH   4  16
ATOM     16  O   UNL     1     100.845 129.486  71.915  0.00  0.00    -0.386 OA
ATOM     17  H   UNL     1     100.026 128.955  71.931  0.00  0.00    +0.210 HD
ENDBRANCH   4  16
BRANCH   5  18
ATOM     18  O   UNL     1     102.983 130.931  72.122  0.00  0.00    -0.385 OA
ATOM     19  H   UNL     1     102.923 130.467  71.256  0.00  0.00    +0.210 HD
ENDBRANCH   5  18
ENDBRANCH   1   3
BRANCH   1  21
ATOM     20  O   UNL     1      98.444 132.985  76.114  0.00  0.00    -0.274 OA
ATOM     21  N   UNL     1      97.834 131.761  74.282  0.00  0.00    -0.299 N 
ATOM     22  C   UNL     1      97.851 132.026  75.639  0.00  0.00    +0.231 C 
ATOM     23  H   UNL     1      97.394 130.873  74.049  0.00  0.00    +0.150 HD
BRANCH  22  24
ATOM     24  CA  UNL     1      97.100 130.978  76.522  0.00  0.00    +0.143 C 
BRANCH  24  25
ATOM     25  N   UNL     1      97.459 131.248  77.947  0.00  0.00    -0.320 NA
ATOM     26  H1  UNL     1      98.025 130.469  78.288  0.00  0.00    +0.119 HD
ATOM     27  H2  UNL     1      98.097 132.046  77.957  0.00  0.00    +0.119 HD
ENDBRANCH  24  25
BRANCH  24  28
ATOM     28  C   UNL     1      95.558 131.019  76.317  0.00  0.00    +0.046 C 
ATOM     29  C   UNL     1      94.763 130.939  77.642  0.00  0.00    +0.012 C 
BRANCH  28  30
ATOM     30  C   UNL     1      95.064 129.967  75.279  0.00  0.00    +0.168 C 
BRANCH  30  32
ATOM     31  N   UNL     1      95.228 131.015  73.036  0.00  0.00    -0.254 NA
ATOM     32  C   UNL     1      94.427 130.505  74.006  0.00  0.00    +0.070 A 
ATOM     33  C   UNL     1      93.043 130.409  73.840  0.00  0.00    +0.029 A 
ATOM     34  C   UNL     1      92.468 130.834  72.644  0.00  0.00    +0.049 A 
ATOM     35  C   UNL     1      94.647 131.405  71.880  0.00  0.00    +0.156 A 
ATOM     36  C   UNL     1      93.286 131.327  71.643  0.00  0.00    +0.135 A 
BRANCH  36  37
ATOM     37  O   UNL     1      92.721 131.703  70.463  0.00  0.00    -0.505 OA
ATOM     38  H   UNL     1      93.431 131.914  69.834  0.00  0.00    +0.292 HD
ENDBRANCH  36  37
ENDBRANCH  30  32
BRANCH  30  39
ATOM     39  O   UNL     1      96.158 129.113  74.911  0.00  0.00    -0.385 OA
ATOM     40  H   UNL     1      96.962 129.514  75.281  0.00  0.00    +0.210 HD
ENDBRANCH  30  39
ENDBRANCH  28  30
ENDBRANCH  24  28
ENDBRANCH  22  24
ENDBRANCH   1  21
BRANCH   1  42
ATOM     41  OXT UNL     1      98.248 134.739  72.932  0.00  0.00    -0.249 OA
ATOM     42  C   UNL     1      98.071 133.563  72.637  0.00  0.00    +0.328 C 
BRANCH  42  43
ATOM     43  O   UNL     1      97.230 133.218  71.636  0.00  0.00    -0.479 OA
ATOM     44  H   UNL     1      97.086 133.934  70.969  0.00  0.00    +0.295 HD
ENDBRANCH  42  43
ENDBRANCH   1  42
TORSDOF 14
ENDMDL
MODEL 6
REMARK VINA RESULT:    -6.021      2.511      6.653
REMARK INTER + INTRA:         -11.750
REMARK INTER:                  -8.892
REMARK INTRA:                  -2.857
REMARK UNBOUND:                -1.857
REMARK  Name = 456557
REMARK  15 active torsions:
REMARK  status: ('A' for Active; 'I' for Inactive)
REMARK    1  A    between atoms: O_2  and  C_17
REMARK    2  A    between atoms: O_3  and  C_18
REMARK    3  A    between atoms: O_4  and  C_22
REMARK    4  A    between atoms: O_7  and  C_27
REMARK    5  A    between atoms: O_10  and  C_35
REMARK    6  A    between atoms: N_11  and  C_19
REMARK    7  A    between atoms: N_12  and  CA_20
REMARK    8  A    between atoms: N_13  and  CA_21
REMARK    9  A    between atoms: C_16  and  CA_20
REMARK   10  A    between atoms: CA_20  and  C_22
REMARK   11  A    between atoms: CA_21  and  C_23
REMARK   12  A    between atoms: CA_21  and  C_24
REMARK   13  A    between atoms: C_23  and  C_27
REMARK   14  A    between atoms: C_23  and  C_28
REMARK   15  A    between atoms: C_27  and  C_30
REMARK                            x       y       z     vdW  Elec       q    Type
REMARK                         _______ _______ _______ _____ _____    ______ ____
ROOT
ATOM      1  CA  UNL     1      99.705 132.537  74.751  0.00  0.00    +0.213 C 
ENDROOT
BRANCH   1   3
ATOM      2  O   UNL     1      99.025 132.415  72.376  0.00  0.00    -0.345 OA
ATOM      3  C   UNL     1      99.075 131.673  73.631  0.00  0.00    +0.183 C 
ATOM      4  C   UNL     1      99.868 130.407  73.302  0.00  0.00    +0.178 C 
ATOM      5  C   UNL     1     100.826 130.862  72.207  0.00  0.00    +0.195 C 
ATOM      6  C   UNL     1      99.910 131.797  71.417  0.00  0.00    +0.255 C 
BRANCH   6   9
ATOM      7  O   UNL     1     101.082 131.384  68.862  0.00  0.00    -0.246 OA
ATOM      8  O   UNL     1     103.026 135.463  68.918  0.00  0.00    -0.268 OA
ATOM      9  N   UNL     1     100.548 132.829  70.593  0.00  0.00    -0.271 N 
ATOM     10  N   UNL     1     101.908 133.480  68.806  0.00  0.00    -0.275 N 
ATOM     11  C   UNL     1     101.151 132.496  69.389  0.00  0.00    +0.331 A 
ATOM     12  C   UNL     1     100.576 134.130  71.066  0.00  0.00    +0.098 A 
ATOM     13  C   UNL     1     101.320 135.078  70.492  0.00  0.00    +0.088 A 
ATOM     14  C   UNL     1     102.160 134.710  69.343  0.00  0.00    +0.254 A 
ATOM     15  H   UNL     1     102.474 133.214  68.016  0.00  0.00    +0.173 HD
ENDBRANCH   6   9
BRANCH   4  16
ATOM     16  O   UNL     1      99.035 129.391  72.691  0.00  0.00    -0.386 OA
ATOM     17  H   UNL     1      98.829 128.708  73.359  0.00  0.00    +0.210 HD
ENDBRANCH   4  16
BRANCH   5  18
ATOM     18  O   UNL     1     101.270 129.746  71.435  0.00  0.00    -0.385 OA
ATOM     19  H   UNL     1     100.609 129.034  71.592  0.00  0.00    +0.210 HD
ENDBRANCH   5  18
ENDBRANCH   1   3
BRANCH   1  21
ATOM     20  O   UNL     1     100.768 134.982  75.841  0.00  0.00    -0.274 OA
ATOM     21  N   UNL     1     100.994 133.187  74.443  0.00  0.00    -0.299 N 
ATOM     22  C   UNL     1     101.352 134.437  74.914  0.00  0.00    +0.231 C 
ATOM     23  H   UNL     1     101.498 132.913  73.603  0.00  0.00    +0.150 HD
BRANCH  22  24
ATOM     24  CA  UNL     1     102.524 135.120  74.139  0.00  0.00    +0.143 C 
BRANCH  24  25
ATOM     25  N   UNL     1     102.627 136.529  74.625  0.00  0.00    -0.320 NA
ATOM     26  H1  UNL     1     101.704 136.825  74.947  0.00  0.00    +0.119 HD
ATOM     27  H2  UNL     1     103.199 136.520  75.472  0.00  0.00    +0.119 HD
ENDBRANCH  24  25
BRANCH  24  28
ATOM     28  C   UNL     1     103.875 134.368  74.314  0.00  0.00    +0.046 C 
ATOM     29  C   UNL     1     104.565 134.661  75.668  0.00  0.00    +0.012 C 
BRANCH  28  30
ATOM     30  C   UNL     1     104.841 134.585  73.111  0.00  0.00    +0.168 C 
BRANCH  30  32
ATOM     31  N   UNL     1     106.438 132.987  72.082  0.00  0.00    -0.254 NA
ATOM     32  C   UNL     1     105.145 133.368  72.249  0.00  0.00    +0.070 A 
ATOM     33  C   UNL     1     104.089 132.639  71.698  0.00  0.00    +0.029 A 
ATOM     34  C   UNL     1     104.364 131.482  70.971  0.00  0.00    +0.049 A 
ATOM     35  C   UNL     1     106.676 131.855  71.386  0.00  0.00    +0.156 A 
ATOM     36  C   UNL     1     105.679 131.077  70.825  0.00  0.00    +0.135 A 
BRANCH  36  37
ATOM     37  O   UNL     1     105.937 129.925  70.146  0.00  0.00    -0.505 OA
ATOM     38  H   UNL     1     106.541 129.381  70.678  0.00  0.00    +0.292 HD
ENDBRANCH  36  37
ENDBRANCH  30  32
BRANCH  30  39
ATOM     39  O   UNL     1     104.321 135.621  72.265  0.00  0.00    -0.385 OA
ATOM     40  H   UNL     1     103.945 135.181  71.484  0.00  0.00    +0.210 HD
ENDBRANCH  30  39
ENDBRANCH  28  30
ENDBRANCH  24  28
ENDBRANCH  22  24
ENDBRANCH   1  21
BRANCH   1  42
ATOM     41  OXT UNL     1      98.995 131.001  76.531  0.00  0.00    -0.249 OA
ATOM     42  C   UNL     1      99.878 131.681  76.022  0.00  0.00    +0.328 C 
BRANCH  42  43
ATOM     43  O   UNL     1     101.122 131.709  76.551  0.00  0.00    -0.479 OA
ATOM     44  H   UNL     1     101.245 131.097  77.318  0.00  0.00    +0.295 HD
ENDBRANCH  42  43
ENDBRANCH   1  42
TORSDOF 14
ENDMDL
MODEL 7
REMARK VINA RESULT:    -6.007      2.065      4.133
REMARK INTER + INTRA:         -11.726
REMARK INTER:                  -9.307
REMARK INTRA:                  -2.420
REMARK UNBOUND:                -1.857
REMARK  Name = 456557
REMARK  15 active torsions:
REMARK  status: ('A' for Active; 'I' for Inactive)
REMARK    1  A    between atoms: O_2  and  C_17
REMARK    2  A    between atoms: O_3  and  C_18
REMARK    3  A    between atoms: O_4  and  C_22
REMARK    4  A    between atoms: O_7  and  C_27
REMARK    5  A    between atoms: O_10  and  C_35
REMARK    6  A    between atoms: N_11  and  C_19
REMARK    7  A    between atoms: N_12  and  CA_20
REMARK    8  A    between atoms: N_13  and  CA_21
REMARK    9  A    between atoms: C_16  and  CA_20
REMARK   10  A    between atoms: CA_20  and  C_22
REMARK   11  A    between atoms: CA_21  and  C_23
REMARK   12  A    between atoms: CA_21  and  C_24
REMARK   13  A    between atoms: C_23  and  C_27
REMARK   14  A    between atoms: C_23  and  C_28
REMARK   15  A    between atoms: C_27  and  C_30
REMARK                            x       y       z     vdW  Elec       q    Type
REMARK                         _______ _______ _______ _____ _____    ______ ____
ROOT
ATOM      1  CA  UNL     1     101.030 132.520  72.655  0.00  0.00    +0.213 C 
ENDROOT
BRANCH   1   3
ATOM      2  O   UNL     1     101.254 132.981  70.235  0.00  0.00    -0.345 OA
ATOM      3  C   UNL     1     100.970 131.942  71.219  0.00  0.00    +0.183 C 
ATOM      4  C   UNL     1     102.006 130.851  70.944  0.00  0.00    +0.178 C 
ATOM      5  C   UNL     1     103.210 131.628  70.421  0.00  0.00    +0.195 C 
ATOM      6  C   UNL     1     102.502 132.683  69.570  0.00  0.00    +0.255 C 
BRANCH   6   9
ATOM      7  O   UNL     1     101.924 134.508  67.471  0.00  0.00    -0.246 OA
ATOM      8  O   UNL     1     105.808 136.727  68.117  0.00  0.00    -0.268 OA
ATOM      9  N   UNL     1     103.228 133.928  69.297  0.00  0.00    -0.271 N 
ATOM     10  N   UNL     1     103.773 135.724  67.902  0.00  0.00    -0.275 N 
ATOM     11  C   UNL     1     102.900 134.708  68.198  0.00  0.00    +0.331 A 
ATOM     12  C   UNL     1     104.275 134.280  70.132  0.00  0.00    +0.098 A 
ATOM     13  C   UNL     1     105.120 135.269  69.831  0.00  0.00    +0.088 A 
ATOM     14  C   UNL     1     104.946 135.976  68.553  0.00  0.00    +0.254 A 
ATOM     15  H   UNL     1     103.638 136.203  67.026  0.00  0.00    +0.173 HD
ENDBRANCH   6   9
BRANCH   4  16
ATOM     16  O   UNL     1     101.601 129.983  69.857  0.00  0.00    -0.386 OA
ATOM     17  H   UNL     1     101.555 129.065  70.186  0.00  0.00    +0.210 HD
ENDBRANCH   4  16
BRANCH   5  18
ATOM     18  O   UNL     1     104.057 130.777  69.648  0.00  0.00    -0.385 OA
ATOM     19  H   UNL     1     104.337 130.056  70.258  0.00  0.00    +0.210 HD
ENDBRANCH   5  18
ENDBRANCH   1   3
BRANCH   1  21
ATOM     20  O   UNL     1     101.321 132.330  75.514  0.00  0.00    -0.274 OA
ATOM     21  N   UNL     1     100.073 131.968  73.633  0.00  0.00    -0.299 N 
ATOM     22  C   UNL     1     100.366 131.791  74.973  0.00  0.00    +0.231 C 
ATOM     23  H   UNL     1      99.316 131.373  73.303  0.00  0.00    +0.150 HD
BRANCH  22  24
ATOM     24  CA  UNL     1      99.412 130.810  75.729  0.00  0.00    +0.143 C 
BRANCH  24  25
ATOM     25  N   UNL     1      99.731 130.903  77.185  0.00  0.00    -0.320 NA
ATOM     26  H1  UNL     1      99.113 130.265  77.690  0.00  0.00    +0.119 HD
ATOM     27  H2  UNL     1     100.664 130.509  77.321  0.00  0.00    +0.119 HD
ENDBRANCH  24  25
BRANCH  24  28
ATOM     28  C   UNL     1      97.909 131.115  75.466  0.00  0.00    +0.046 C 
ATOM     29  C   UNL     1      97.056 131.137  76.757  0.00  0.00    +0.012 C 
BRANCH  28  30
ATOM     30  C   UNL     1      97.292 130.187  74.377  0.00  0.00    +0.168 C 
BRANCH  30  32
ATOM     31  N   UNL     1      97.577 131.218  72.137  0.00  0.00    -0.254 NA
ATOM     32  C   UNL     1      96.728 130.866  73.137  0.00  0.00    +0.070 A 
ATOM     33  C   UNL     1      95.349 131.057  73.029  0.00  0.00    +0.029 A 
ATOM     34  C   UNL     1      94.825 131.610  71.862  0.00  0.00    +0.049 A 
ATOM     35  C   UNL     1      97.042 131.738  71.011  0.00  0.00    +0.156 A 
ATOM     36  C   UNL     1      95.686 131.942  70.831  0.00  0.00    +0.135 A 
BRANCH  36  37
ATOM     37  O   UNL     1      95.163 132.446  69.679  0.00  0.00    -0.505 OA
ATOM     38  H   UNL     1      95.782 133.103  69.320  0.00  0.00    +0.292 HD
ENDBRANCH  36  37
ENDBRANCH  30  32
BRANCH  30  39
ATOM     39  O   UNL     1      98.274 129.226  73.960  0.00  0.00    -0.385 OA
ATOM     40  H   UNL     1      98.077 128.402  74.437  0.00  0.00    +0.210 HD
ENDBRANCH  30  39
ENDBRANCH  28  30
ENDBRANCH  24  28
ENDBRANCH  22  24
ENDBRANCH   1  21
BRANCH   1  42
ATOM     41  OXT UNL     1     101.692 134.867  72.948  0.00  0.00    -0.249 OA
ATOM     42  C   UNL     1     100.848 134.050  72.599  0.00  0.00    +0.328 C 
BRANCH  42  43
ATOM     43  O   UNL     1      99.658 134.454  72.099  0.00  0.00    -0.479 OA
ATOM     44  H   UNL     1      98.948 133.767  72.152  0.00  0.00    +0.295 HD
ENDBRANCH  42  43
ENDBRANCH   1  42
TORSDOF 14
ENDMDL
MODEL 8
REMARK VINA RESULT:    -5.966     11.834     15.293
REMARK INTER + INTRA:         -11.660
REMARK INTER:                  -9.189
REMARK INTRA:                  -2.471
REMARK UNBOUND:                -1.857
REMARK  Name = 456557
REMARK  15 active torsions:
REMARK  status: ('A' for Active; 'I' for Inactive)
REMARK    1  A    between atoms: O_2  and  C_17
REMARK    2  A    between atoms: O_3  and  C_18
REMARK    3  A    between atoms: O_4  and  C_22
REMARK    4  A    between atoms: O_7  and  C_27
REMARK    5  A    between atoms: O_10  and  C_35
REMARK    6  A    between atoms: N_11  and  C_19
REMARK    7  A    between atoms: N_12  and  CA_20
REMARK    8  A    between atoms: N_13  and  CA_21
REMARK    9  A    between atoms: C_16  and  CA_20
REMARK   10  A    between atoms: CA_20  and  C_22
REMARK   11  A    between atoms: CA_21  and  C_23
REMARK   12  A    between atoms: CA_21  and  C_24
REMARK   13  A    between atoms: C_23  and  C_27
REMARK   14  A    between atoms: C_23  and  C_28
REMARK   15  A    between atoms: C_27  and  C_30
REMARK                            x       y       z     vdW  Elec       q    Type
REMARK                         _______ _______ _______ _____ _____    ______ ____
ROOT
ATOM      1  CA  UNL     1      98.232 138.557  59.861  0.00  0.00    +0.213 C 
ENDROOT
BRANCH   1   3
ATOM      2  O   UNL     1      95.848 137.999  60.210  0.00  0.00    -0.345 OA
ATOM      3  C   UNL     1      97.210 137.492  60.331  0.00  0.00    +0.183 C 
ATOM      4  C   UNL     1      97.224 136.208  59.501  0.00  0.00    +0.178 C 
ATOM      5  C   UNL     1      96.203 136.485  58.402  0.00  0.00    +0.195 C 
ATOM      6  C   UNL     1      95.142 137.242  59.202  0.00  0.00    +0.255 C 
BRANCH   6   9
ATOM      7  O   UNL     1      92.892 136.410  57.682  0.00  0.00    -0.246 OA
ATOM      8  O   UNL     1      92.470 140.486  55.778  0.00  0.00    -0.268 OA
ATOM      9  N   UNL     1      94.240 138.127  58.458  0.00  0.00    -0.271 N 
ATOM     10  N   UNL     1      92.568 138.484  56.863  0.00  0.00    -0.275 N 
ATOM     11  C   UNL     1      93.211 137.600  57.692  0.00  0.00    +0.331 A 
ATOM     12  C   UNL     1      94.467 139.492  58.502  0.00  0.00    +0.098 A 
ATOM     13  C   UNL     1      93.838 140.342  57.687  0.00  0.00    +0.088 A 
ATOM     14  C   UNL     1      92.901 139.797  56.693  0.00  0.00    +0.254 A 
ATOM     15  H   UNL     1      91.925 138.097  56.190  0.00  0.00    +0.173 HD
ENDBRANCH   6   9
BRANCH   4  16
ATOM     16  O   UNL     1      96.699 135.079  60.243  0.00  0.00    -0.386 OA
ATOM     17  H   UNL     1      97.441 134.611  60.672  0.00  0.00    +0.210 HD
ENDBRANCH   4  16
BRANCH   5  18
ATOM     18  O   UNL     1      95.710 135.261  57.856  0.00  0.00    -0.385 OA
ATOM     19  H   UNL     1      96.270 134.551  58.248  0.00  0.00    +0.210 HD
ENDBRANCH   5  18
ENDBRANCH   1   3
BRANCH   1  21
ATOM     20  O   UNL     1      99.663 138.196  57.387  0.00  0.00    -0.274 OA
ATOM     21  N   UNL     1      99.624 138.104  59.672  0.00  0.00    -0.299 N 
ATOM     22  C   UNL     1     100.176 137.824  58.434  0.00  0.00    +0.231 C 
ATOM     23  H   UNL     1     100.102 137.639  60.440  0.00  0.00    +0.150 HD
BRANCH  22  24
ATOM     24  CA  UNL     1     101.475 136.957  58.475  0.00  0.00    +0.143 C 
BRANCH  24  25
ATOM     25  N   UNL     1     102.457 137.656  59.356  0.00  0.00    -0.320 NA
ATOM     26  H1  UNL     1     102.373 138.661  59.195  0.00  0.00    +0.119 HD
ATOM     27  H2  UNL     1     102.149 137.529  60.322  0.00  0.00    +0.119 HD
ENDBRANCH  24  25
BRANCH  24  28
ATOM     28  C   UNL     1     101.210 135.507  58.974  0.00  0.00    +0.046 C 
ATOM     29  C   UNL     1     101.958 135.166  60.285  0.00  0.00    +0.012 C 
BRANCH  28  30
ATOM     30  C   UNL     1     101.460 134.438  57.868  0.00  0.00    +0.168 C 
BRANCH  30  32
ATOM     31  N   UNL     1     101.187 134.488  55.402  0.00  0.00    -0.254 NA
ATOM     32  C   UNL     1     100.591 134.527  56.621  0.00  0.00    +0.070 A 
ATOM     33  C   UNL     1      99.202 134.585  56.758  0.00  0.00    +0.029 A 
ATOM     34  C   UNL     1      98.404 134.590  55.615  0.00  0.00    +0.049 A 
ATOM     35  C   UNL     1     100.390 134.479  54.312  0.00  0.00    +0.156 A 
ATOM     36  C   UNL     1      99.008 134.521  54.373  0.00  0.00    +0.135 A 
BRANCH  36  37
ATOM     37  O   UNL     1      98.220 134.488  53.263  0.00  0.00    -0.505 OA
ATOM     38  H   UNL     1      97.465 135.083  53.402  0.00  0.00    +0.292 HD
ENDBRANCH  36  37
ENDBRANCH  30  32
BRANCH  30  39
ATOM     39  O   UNL     1     102.837 134.485  57.465  0.00  0.00    -0.385 OA
ATOM     40  H   UNL     1     102.904 135.171  56.780  0.00  0.00    +0.210 HD
ENDBRANCH  30  39
ENDBRANCH  28  30
ENDBRANCH  24  28
ENDBRANCH  22  24
ENDBRANCH   1  21
BRANCH   1  42
ATOM     41  OXT UNL     1      99.049 139.899  61.748  0.00  0.00    -0.249 OA
ATOM     42  C   UNL     1      98.231 139.740  60.850  0.00  0.00    +0.328 C 
BRANCH  42  43
ATOM     43  O   UNL     1      97.243 140.640  60.644  0.00  0.00    -0.479 OA
ATOM     44  H   UNL     1      96.366 140.362  61.007  0.00  0.00    +0.295 HD
ENDBRANCH  42  43
ENDBRANCH   1  42
TORSDOF 14
ENDMDL
MODEL 9
REMARK VINA RESULT:    -5.891     11.663     15.112
REMARK INTER + INTRA:         -11.535
REMARK INTER:                  -8.370
REMARK INTRA:                  -3.165
REMARK UNBOUND:                -1.857
REMARK  Name = 456557
REMARK  15 active torsions:
REMARK  status: ('A' for Active; 'I' for Inactive)
REMARK    1  A    between atoms: O_2  and  C_17
REMARK    2  A    between atoms: O_3  and  C_18
REMARK    3  A    between atoms: O_4  and  C_22
REMARK    4  A    between atoms: O_7  and  C_27
REMARK    5  A    between atoms: O_10  and  C_35
REMARK    6  A    between atoms: N_11  and  C_19
REMARK    7  A    between atoms: N_12  and  CA_20
REMARK    8  A    between atoms: N_13  and  CA_21
REMARK    9  A    between atoms: C_16  and  CA_20
REMARK   10  A    between atoms: CA_20  and  C_22
REMARK   11  A    between atoms: CA_21  and  C_23
REMARK   12  A    between atoms: CA_21  and  C_24
REMARK   13  A    between atoms: C_23  and  C_27
REMARK   14  A    between atoms: C_23  and  C_28
REMARK   15  A    between atoms: C_27  and  C_30
REMARK                            x       y       z     vdW  Elec       q    Type
REMARK                         _______ _______ _______ _____ _____    ______ ____
ROOT
ATOM      1  CA  UNL     1      97.999 138.771  59.867  0.00  0.00    +0.213 C 
ENDROOT
BRANCH   1   3
ATOM      2  O   UNL     1      96.420 137.501  58.449  0.00  0.00    -0.345 OA
ATOM      3  C   UNL     1      97.033 137.564  59.771  0.00  0.00    +0.183 C 
ATOM      4  C   UNL     1      97.713 136.207  59.951  0.00  0.00    +0.178 C 
ATOM      5  C   UNL     1      98.105 135.815  58.530  0.00  0.00    +0.195 C 
ATOM      6  C   UNL     1      96.880 136.315  57.764  0.00  0.00    +0.255 C 
BRANCH   6   9
ATOM      7  O   UNL     1      96.847 134.389  55.677  0.00  0.00    -0.246 OA
ATOM      8  O   UNL     1      98.429 137.376  52.678  0.00  0.00    -0.268 OA
ATOM      9  N   UNL     1      97.049 136.601  56.335  0.00  0.00    -0.271 N 
ATOM     10  N   UNL     1      97.467 135.916  54.139  0.00  0.00    -0.275 N 
ATOM     11  C   UNL     1      97.084 135.568  55.410  0.00  0.00    +0.331 A 
ATOM     12  C   UNL     1      97.217 137.917  55.939  0.00  0.00    +0.098 A 
ATOM     13  C   UNL     1      97.594 138.242  54.700  0.00  0.00    +0.088 A 
ATOM     14  C   UNL     1      97.869 137.159  53.744  0.00  0.00    +0.254 A 
ATOM     15  H   UNL     1      97.647 135.163  53.493  0.00  0.00    +0.173 HD
ENDBRANCH   6   9
BRANCH   4  16
ATOM     16  O   UNL     1      96.780 135.189  60.391  0.00  0.00    -0.386 OA
ATOM     17  H   UNL     1      95.871 135.489  60.199  0.00  0.00    +0.210 HD
ENDBRANCH   4  16
BRANCH   5  18
ATOM     18  O   UNL     1      98.276 134.401  58.430  0.00  0.00    -0.385 OA
ATOM     19  H   UNL     1      98.838 134.146  59.198  0.00  0.00    +0.210 HD
ENDBRANCH   5  18
ENDBRANCH   1   3
BRANCH   1  21
ATOM     20  O   UNL     1     100.252 139.285  58.147  0.00  0.00    -0.274 OA
ATOM     21  N   UNL     1      99.422 138.464  60.113  0.00  0.00    -0.299 N 
ATOM     22  C   UNL     1     100.413 138.621  59.161  0.00  0.00    +0.231 C 
ATOM     23  H   UNL     1      99.666 137.799  60.843  0.00  0.00    +0.150 HD
BRANCH  22  24
ATOM     24  CA  UNL     1     101.737 137.844  59.457  0.00  0.00    +0.143 C 
BRANCH  24  25
ATOM     25  N   UNL     1     102.197 138.240  60.822  0.00  0.00    -0.320 NA
ATOM     26  H1  UNL     1     101.785 137.595  61.499  0.00  0.00    +0.119 HD
ATOM     27  H2  UNL     1     103.200 138.052  60.874  0.00  0.00    +0.119 HD
ENDBRANCH  24  25
BRANCH  24  28
ATOM     28  C   UNL     1     101.560 136.301  59.353  0.00  0.00    +0.046 C 
ATOM     29  C   UNL     1     101.684 135.579  60.716  0.00  0.00    +0.012 C 
BRANCH  28  30
ATOM     30  C   UNL     1     102.486 135.665  58.272  0.00  0.00    +0.168 C 
BRANCH  30  32
ATOM     31  N   UNL     1     101.193 133.948  57.030  0.00  0.00    -0.254 NA
ATOM     32  C   UNL     1     101.812 135.157  57.006  0.00  0.00    +0.070 A 
ATOM     33  C   UNL     1     101.793 135.967  55.868  0.00  0.00    +0.029 A 
ATOM     34  C   UNL     1     101.112 135.533  54.732  0.00  0.00    +0.049 A 
ATOM     35  C   UNL     1     100.528 133.559  55.922  0.00  0.00    +0.156 A 
ATOM     36  C   UNL     1     100.457 134.315  54.766  0.00  0.00    +0.135 A 
BRANCH  36  37
ATOM     37  O   UNL     1      99.761 133.916  53.666  0.00  0.00    -0.505 OA
ATOM     38  H   UNL     1      99.912 134.560  52.954  0.00  0.00    +0.292 HD
ENDBRANCH  36  37
ENDBRANCH  30  32
BRANCH  30  39
ATOM     39  O   UNL     1     103.498 136.612  57.897  0.00  0.00    -0.385 OA
ATOM     40  H   UNL     1     103.959 136.236  57.128  0.00  0.00    +0.210 HD
ENDBRANCH  30  39
ENDBRANCH  28  30
ENDBRANCH  24  28
ENDBRANCH  22  24
ENDBRANCH   1  21
BRANCH   1  42
ATOM     41  OXT UNL     1      98.238 140.424  61.667  0.00  0.00    -0.249 OA
ATOM     42  C   UNL     1      97.508 139.734  60.966  0.00  0.00    +0.328 C 
BRANCH  42  43
ATOM     43  O   UNL     1      96.163 139.790  61.101  0.00  0.00    -0.479 OA
ATOM     44  H   UNL     1      95.850 140.527  61.681  0.00  0.00    +0.295 HD
ENDBRANCH  42  43
ENDBRANCH   1  42
TORSDOF 14
ENDMDL
